examples/transmission/output/syn_synthesis/synthetic_500.raw
0,100.0,35,0,0,50.0
Fri, 17 Apr 2026 14:10:30 GMT network

0 / END OF SYSTEM-WIDE DATA, BEGIN BUS DATA
1,'sub_0_0',380.0,1,1,1,1,1.0,0.0,1.05,0.95,1.05,0.95
2,'sub_1_0',380.0,1,1,1,1,1.0,0.0,1.05,0.95,1.05,0.95
3,'sub_2_0',380.0,1,1,1,1,1.0,0.0,1.05,0.95,1.05,0.95
4,'sub_3_0',380.0,1,1,1,1,1.0,0.0,1.05,0.95,1.05,0.95
5,'sub_4_0',380.0,1,1,1,1,1.0,0.0,1.05,0.95,1.05,0.95
6,'sub_5_0',380.0,1,1,1,1,1.0,0.0,1.05,0.95,1.05,0.95
7,'sub_6_0',380.0,1,1,1,1,1.0,0.0,1.05,0.95,1.05,0.95
8,'sub_7_0',380.0,1,1,1,1,1.0,0.0,1.05,0.95,1.05,0.95
9,'sub_8_0',380.0,2,1,1,1,1.0,0.0,1.05,0.95,1.05,0.95
10,'sub_9_0',380.0,1,1,1,1,1.0,0.0,1.05,0.95,1.05,0.95
11,'sub_10_0',380.0,1,1,1,1,1.0,0.0,1.05,0.95,1.05,0.95
12,'sub_11_0',380.0,1,1,1,1,1.0,0.0,1.05,0.95,1.05,0.95
13,'sub_12_0',380.0,2,1,1,1,1.0,0.0,1.05,0.95,1.05,0.95
14,'sub_13_0',380.0,1,1,1,1,1.0,0.0,1.05,0.95,1.05,0.95
15,'sub_14_0',380.0,1,1,1,1,1.0,0.0,1.05,0.95,1.05,0.95
16,'sub_15_0',380.0,1,1,1,1,1.0,0.0,1.05,0.95,1.05,0.95
17,'sub_16_0',380.0,1,1,1,1,1.0,0.0,1.05,0.95,1.05,0.95
18,'sub_17_0',380.0,1,1,1,1,1.0,0.0,1.05,0.95,1.05,0.95
19,'sub_18_0',380.0,1,1,1,1,1.0,0.0,1.05,0.95,1.05,0.95
20,'sub_19_0',380.0,2,1,1,1,1.0,0.0,1.05,0.95,1.05,0.95
21,'sub_20_0',380.0,1,1,1,1,1.0,0.0,1.05,0.95,1.05,0.95
22,'sub_21_0',380.0,1,1,1,1,1.0,0.0,1.05,0.95,1.05,0.95
23,'sub_22_0',380.0,2,1,1,1,1.0,0.0,1.05,0.95,1.05,0.95
24,'sub_23_0',380.0,2,1,1,1,1.0,0.0,1.05,0.95,1.05,0.95
25,'sub_24_0',380.0,1,1,1,1,1.0,0.0,1.05,0.95,1.05,0.95
26,'sub_25_0',380.0,1,1,1,1,1.0,0.0,1.05,0.95,1.05,0.95
27,'sub_26_0',380.0,1,1,1,1,1.0,0.0,1.05,0.95,1.05,0.95
28,'sub_27_0',380.0,2,1,1,1,1.0,0.0,1.05,0.95,1.05,0.95
29,'sub_28_0',380.0,1,1,1,1,1.0,0.0,1.05,0.95,1.05,0.95
30,'sub_29_0',380.0,1,1,1,1,1.0,0.0,1.05,0.95,1.05,0.95
31,'sub_30_0',380.0,1,1,1,1,1.0,0.0,1.05,0.95,1.05,0.95
32,'sub_31_0',380.0,1,1,1,1,1.0,0.0,1.05,0.95,1.05,0.95
33,'sub_32_0',380.0,1,1,1,1,1.0,0.0,1.05,0.95,1.05,0.95
34,'sub_33_0',380.0,1,1,1,1,1.0,0.0,1.05,0.95,1.05,0.95
35,'sub_34_0',380.0,1,1,1,1,1.0,0.0,1.05,0.95,1.05,0.95
36,'sub_35_0',380.0,1,1,1,1,1.0,0.0,1.05,0.95,1.05,0.95
37,'sub_36_0',380.0,1,1,1,1,1.0,0.0,1.05,0.95,1.05,0.95
38,'sub_37_0',380.0,1,1,1,1,1.0,0.0,1.05,0.95,1.05,0.95
39,'sub_38_0',380.0,1,1,1,1,1.0,0.0,1.05,0.95,1.05,0.95
40,'sub_39_0',380.0,1,1,1,1,1.0,0.0,1.05,0.95,1.05,0.95
41,'sub_40_0',380.0,1,1,1,1,1.0,0.0,1.05,0.95,1.05,0.95
42,'sub_41_0',380.0,1,1,1,1,1.0,0.0,1.05,0.95,1.05,0.95
43,'sub_42_0',380.0,1,1,1,1,1.0,0.0,1.05,0.95,1.05,0.95
44,'sub_43_0',380.0,1,1,1,1,1.0,0.0,1.05,0.95,1.05,0.95
45,'sub_44_0',380.0,1,1,1,1,1.0,0.0,1.05,0.95,1.05,0.95
46,'sub_45_0',380.0,1,1,1,1,1.0,0.0,1.05,0.95,1.05,0.95
47,'sub_46_0',380.0,1,1,1,1,1.0,0.0,1.05,0.95,1.05,0.95
48,'sub_47_0',380.0,1,1,1,1,1.0,0.0,1.05,0.95,1.05,0.95
49,'sub_48_0',110.0,2,1,1,1,1.0,0.0,1.05,0.95,1.05,0.95
50,'sub_49_0',110.0,1,1,1,1,1.0,0.0,1.05,0.95,1.05,0.95
51,'sub_50_0',110.0,1,1,1,1,1.0,0.0,1.05,0.95,1.05,0.95
52,'sub_51_0',110.0,1,1,1,1,1.0,0.0,1.05,0.95,1.05,0.95
53,'sub_52_0',110.0,1,1,1,1,1.0,0.0,1.05,0.95,1.05,0.95
54,'sub_53_0',110.0,1,1,1,1,1.0,0.0,1.05,0.95,1.05,0.95
55,'sub_54_0',110.0,1,1,1,1,1.0,0.0,1.05,0.95,1.05,0.95
56,'sub_55_0',110.0,1,1,1,1,1.0,0.0,1.05,0.95,1.05,0.95
57,'sub_56_0',110.0,1,1,1,1,1.0,0.0,1.05,0.95,1.05,0.95
58,'sub_57_0',110.0,1,1,1,1,1.0,0.0,1.05,0.95,1.05,0.95
59,'sub_58_0',110.0,2,1,1,1,1.0,0.0,1.05,0.95,1.05,0.95
60,'sub_59_0',110.0,1,1,1,1,1.0,0.0,1.05,0.95,1.05,0.95
61,'sub_60_0',110.0,1,1,1,1,1.0,0.0,1.05,0.95,1.05,0.95
62,'sub_61_0',110.0,2,1,1,1,1.0,0.0,1.05,0.95,1.05,0.95
63,'sub_62_0',110.0,1,1,1,1,1.0,0.0,1.05,0.95,1.05,0.95
64,'sub_63_0',110.0,1,1,1,1,1.0,0.0,1.05,0.95,1.05,0.95
65,'sub_64_0',110.0,1,1,1,1,1.0,0.0,1.05,0.95,1.05,0.95
66,'sub_65_0',110.0,1,1,1,1,1.0,0.0,1.05,0.95,1.05,0.95
67,'sub_66_0',110.0,1,1,1,1,1.0,0.0,1.05,0.95,1.05,0.95
68,'sub_67_0',110.0,1,1,1,1,1.0,0.0,1.05,0.95,1.05,0.95
69,'sub_68_0',110.0,1,1,1,1,1.0,0.0,1.05,0.95,1.05,0.95
70,'sub_69_0',110.0,1,1,1,1,1.0,0.0,1.05,0.95,1.05,0.95
71,'sub_70_0',110.0,2,1,1,1,1.0,0.0,1.05,0.95,1.05,0.95
72,'sub_71_0',110.0,1,1,1,1,1.0,0.0,1.05,0.95,1.05,0.95
73,'sub_72_0',110.0,1,1,1,1,1.0,0.0,1.05,0.95,1.05,0.95
74,'sub_73_0',110.0,1,1,1,1,1.0,0.0,1.05,0.95,1.05,0.95
75,'sub_74_0',110.0,1,1,1,1,1.0,0.0,1.05,0.95,1.05,0.95
76,'sub_75_0',110.0,1,1,1,1,1.0,0.0,1.05,0.95,1.05,0.95
77,'sub_76_0',110.0,1,1,1,1,1.0,0.0,1.05,0.95,1.05,0.95
78,'sub_77_0',110.0,2,1,1,1,1.0,0.0,1.05,0.95,1.05,0.95
79,'sub_78_0',110.0,1,1,1,1,1.0,0.0,1.05,0.95,1.05,0.95
80,'sub_79_0',110.0,2,1,1,1,1.0,0.0,1.05,0.95,1.05,0.95
81,'sub_80_0',110.0,1,1,1,1,1.0,0.0,1.05,0.95,1.05,0.95
82,'sub_81_0',110.0,2,1,1,1,1.0,0.0,1.05,0.95,1.05,0.95
83,'sub_82_0',110.0,1,1,1,1,1.0,0.0,1.05,0.95,1.05,0.95
84,'sub_83_0',110.0,2,1,1,1,1.0,0.0,1.05,0.95,1.05,0.95
85,'sub_84_0',110.0,2,1,1,1,1.0,0.0,1.05,0.95,1.05,0.95
86,'sub_85_0',110.0,1,1,1,1,1.0,0.0,1.05,0.95,1.05,0.95
87,'sub_86_0',110.0,1,1,1,1,1.0,0.0,1.05,0.95,1.05,0.95
88,'sub_87_0',110.0,2,1,1,1,1.0,0.0,1.05,0.95,1.05,0.95
89,'sub_88_0',110.0,1,1,1,1,1.0,0.0,1.05,0.95,1.05,0.95
90,'sub_89_0',110.0,2,1,1,1,1.0,0.0,1.05,0.95,1.05,0.95
91,'sub_90_0',110.0,1,1,1,1,1.0,0.0,1.05,0.95,1.05,0.95
92,'sub_91_0',110.0,1,1,1,1,1.0,0.0,1.05,0.95,1.05,0.95
93,'sub_92_0',110.0,1,1,1,1,1.0,0.0,1.05,0.95,1.05,0.95
94,'sub_93_0',110.0,1,1,1,1,1.0,0.0,1.05,0.95,1.05,0.95
95,'sub_94_0',110.0,2,1,1,1,1.0,0.0,1.05,0.95,1.05,0.95
96,'sub_95_0',110.0,1,1,1,1,1.0,0.0,1.05,0.95,1.05,0.95
97,'sub_96_0',110.0,1,1,1,1,1.0,0.0,1.05,0.95,1.05,0.95
98,'sub_97_0',110.0,1,1,1,1,1.0,0.0,1.05,0.95,1.05,0.95
99,'sub_98_0',110.0,1,1,1,1,1.0,0.0,1.05,0.95,1.05,0.95
100,'sub_99_0',110.0,3,1,1,1,1.0,0.0,1.05,0.95,1.05,0.95
101,'sub_100_0',110.0,1,1,1,1,1.0,0.0,1.05,0.95,1.05,0.95
102,'sub_101_0',110.0,1,1,1,1,1.0,0.0,1.05,0.95,1.05,0.95
103,'sub_102_0',110.0,1,1,1,1,1.0,0.0,1.05,0.95,1.05,0.95
104,'sub_103_0',110.0,1,1,1,1,1.0,0.0,1.05,0.95,1.05,0.95
105,'sub_104_0',110.0,1,1,1,1,1.0,0.0,1.05,0.95,1.05,0.95
106,'sub_105_0',110.0,2,1,1,1,1.0,0.0,1.05,0.95,1.05,0.95
107,'sub_106_0',110.0,2,1,1,1,1.0,0.0,1.05,0.95,1.05,0.95
108,'sub_107_0',110.0,2,1,1,1,1.0,0.0,1.05,0.95,1.05,0.95
109,'sub_108_0',110.0,1,1,1,1,1.0,0.0,1.05,0.95,1.05,0.95
110,'sub_109_0',110.0,1,1,1,1,1.0,0.0,1.05,0.95,1.05,0.95
111,'sub_110_0',110.0,1,1,1,1,1.0,0.0,1.05,0.95,1.05,0.95
112,'sub_111_0',110.0,1,1,1,1,1.0,0.0,1.05,0.95,1.05,0.95
113,'sub_112_0',110.0,1,1,1,1,1.0,0.0,1.05,0.95,1.05,0.95
114,'sub_113_0',110.0,2,1,1,1,1.0,0.0,1.05,0.95,1.05,0.95
115,'sub_114_0',110.0,2,1,1,1,1.0,0.0,1.05,0.95,1.05,0.95
116,'sub_115_0',110.0,1,1,1,1,1.0,0.0,1.05,0.95,1.05,0.95
117,'sub_116_0',110.0,1,1,1,1,1.0,0.0,1.05,0.95,1.05,0.95
118,'sub_117_0',110.0,1,1,1,1,1.0,0.0,1.05,0.95,1.05,0.95
119,'sub_118_0',110.0,1,1,1,1,1.0,0.0,1.05,0.95,1.05,0.95
120,'sub_119_0',110.0,2,1,1,1,1.0,0.0,1.05,0.95,1.05,0.95
121,'sub_120_0',110.0,1,1,1,1,1.0,0.0,1.05,0.95,1.05,0.95
122,'sub_121_0',110.0,1,1,1,1,1.0,0.0,1.05,0.95,1.05,0.95
123,'sub_122_0',110.0,2,1,1,1,1.0,0.0,1.05,0.95,1.05,0.95
124,'sub_123_0',110.0,1,1,1,1,1.0,0.0,1.05,0.95,1.05,0.95
125,'sub_124_0',110.0,1,1,1,1,1.0,0.0,1.05,0.95,1.05,0.95
126,'sub_125_0',110.0,1,1,1,1,1.0,0.0,1.05,0.95,1.05,0.95
127,'sub_126_0',110.0,2,1,1,1,1.0,0.0,1.05,0.95,1.05,0.95
128,'sub_127_0',110.0,1,1,1,1,1.0,0.0,1.05,0.95,1.05,0.95
129,'sub_128_0',110.0,1,1,1,1,1.0,0.0,1.05,0.95,1.05,0.95
130,'sub_129_0',110.0,2,1,1,1,1.0,0.0,1.05,0.95,1.05,0.95
131,'sub_130_0',110.0,2,1,1,1,1.0,0.0,1.05,0.95,1.05,0.95
132,'sub_131_0',110.0,2,1,1,1,1.0,0.0,1.05,0.95,1.05,0.95
133,'sub_132_0',110.0,1,1,1,1,1.0,0.0,1.05,0.95,1.05,0.95
134,'sub_133_0',110.0,1,1,1,1,1.0,0.0,1.05,0.95,1.05,0.95
135,'sub_134_0',110.0,1,1,1,1,1.0,0.0,1.05,0.95,1.05,0.95
136,'sub_135_0',110.0,1,1,1,1,1.0,0.0,1.05,0.95,1.05,0.95
137,'sub_136_0',110.0,2,1,1,1,1.0,0.0,1.05,0.95,1.05,0.95
138,'sub_137_0',110.0,2,1,1,1,1.0,0.0,1.05,0.95,1.05,0.95
139,'sub_138_0',110.0,2,1,1,1,1.0,0.0,1.05,0.95,1.05,0.95
140,'sub_139_0',110.0,1,1,1,1,1.0,0.0,1.05,0.95,1.05,0.95
141,'sub_140_0',110.0,1,1,1,1,1.0,0.0,1.05,0.95,1.05,0.95
142,'sub_141_0',110.0,2,1,1,1,1.0,0.0,1.05,0.95,1.05,0.95
143,'sub_142_0',110.0,1,1,1,1,1.0,0.0,1.05,0.95,1.05,0.95
144,'sub_143_0',110.0,1,1,1,1,1.0,0.0,1.05,0.95,1.05,0.95
145,'sub_144_0',110.0,1,1,1,1,1.0,0.0,1.05,0.95,1.05,0.95
146,'sub_145_0',110.0,2,1,1,1,1.0,0.0,1.05,0.95,1.05,0.95
147,'sub_146_0',110.0,1,1,1,1,1.0,0.0,1.05,0.95,1.05,0.95
148,'sub_147_0',110.0,1,1,1,1,1.0,0.0,1.05,0.95,1.05,0.95
149,'sub_148_0',110.0,1,1,1,1,1.0,0.0,1.05,0.95,1.05,0.95
150,'sub_149_0',110.0,1,1,1,1,1.0,0.0,1.05,0.95,1.05,0.95
151,'sub_150_0',110.0,1,1,1,1,1.0,0.0,1.05,0.95,1.05,0.95
152,'sub_151_0',110.0,1,1,1,1,1.0,0.0,1.05,0.95,1.05,0.95
153,'sub_152_0',110.0,1,1,1,1,1.0,0.0,1.05,0.95,1.05,0.95
154,'sub_153_0',110.0,2,1,1,1,1.0,0.0,1.05,0.95,1.05,0.95
155,'sub_154_0',110.0,1,1,1,1,1.0,0.0,1.05,0.95,1.05,0.95
156,'sub_155_0',110.0,1,1,1,1,1.0,0.0,1.05,0.95,1.05,0.95
157,'sub_156_0',110.0,1,1,1,1,1.0,0.0,1.05,0.95,1.05,0.95
158,'sub_157_0',110.0,1,1,1,1,1.0,0.0,1.05,0.95,1.05,0.95
159,'sub_158_0',110.0,1,1,1,1,1.0,0.0,1.05,0.95,1.05,0.95
160,'sub_159_0',110.0,1,1,1,1,1.0,0.0,1.05,0.95,1.05,0.95
161,'sub_160_0',110.0,1,1,1,1,1.0,0.0,1.05,0.95,1.05,0.95
162,'sub_161_0',110.0,1,1,1,1,1.0,0.0,1.05,0.95,1.05,0.95
163,'sub_162_0',110.0,2,1,1,1,1.0,0.0,1.05,0.95,1.05,0.95
164,'sub_163_0',110.0,1,1,1,1,1.0,0.0,1.05,0.95,1.05,0.95
165,'sub_164_0',110.0,1,1,1,1,1.0,0.0,1.05,0.95,1.05,0.95
166,'sub_165_0',110.0,1,1,1,1,1.0,0.0,1.05,0.95,1.05,0.95
167,'sub_166_0',110.0,1,1,1,1,1.0,0.0,1.05,0.95,1.05,0.95
168,'sub_167_0',110.0,1,1,1,1,1.0,0.0,1.05,0.95,1.05,0.95
169,'sub_168_0',110.0,2,1,1,1,1.0,0.0,1.05,0.95,1.05,0.95
170,'sub_169_0',110.0,1,1,1,1,1.0,0.0,1.05,0.95,1.05,0.95
171,'sub_170_0',110.0,1,1,1,1,1.0,0.0,1.05,0.95,1.05,0.95
172,'sub_171_0',110.0,1,1,1,1,1.0,0.0,1.05,0.95,1.05,0.95
173,'sub_172_0',110.0,2,1,1,1,1.0,0.0,1.05,0.95,1.05,0.95
174,'sub_173_0',110.0,1,1,1,1,1.0,0.0,1.05,0.95,1.05,0.95
175,'sub_174_0',110.0,1,1,1,1,1.0,0.0,1.05,0.95,1.05,0.95
176,'sub_175_0',110.0,1,1,1,1,1.0,0.0,1.05,0.95,1.05,0.95
177,'sub_176_0',110.0,1,1,1,1,1.0,0.0,1.05,0.95,1.05,0.95
178,'sub_177_0',110.0,2,1,1,1,1.0,0.0,1.05,0.95,1.05,0.95
179,'sub_178_0',110.0,1,1,1,1,1.0,0.0,1.05,0.95,1.05,0.95
180,'sub_179_0',110.0,2,1,1,1,1.0,0.0,1.05,0.95,1.05,0.95
181,'sub_180_0',110.0,1,1,1,1,1.0,0.0,1.05,0.95,1.05,0.95
182,'sub_181_0',110.0,1,1,1,1,1.0,0.0,1.05,0.95,1.05,0.95
183,'sub_182_0',20.0,1,1,1,1,1.0,0.0,1.05,0.95,1.05,0.95
184,'sub_183_0',20.0,1,1,1,1,1.0,0.0,1.05,0.95,1.05,0.95
185,'sub_184_0',20.0,1,1,1,1,1.0,0.0,1.05,0.95,1.05,0.95
186,'sub_185_0',20.0,1,1,1,1,1.0,0.0,1.05,0.95,1.05,0.95
187,'sub_186_0',20.0,1,1,1,1,1.0,0.0,1.05,0.95,1.05,0.95
188,'sub_187_0',20.0,1,1,1,1,1.0,0.0,1.05,0.95,1.05,0.95
189,'sub_188_0',20.0,1,1,1,1,1.0,0.0,1.05,0.95,1.05,0.95
190,'sub_189_0',20.0,1,1,1,1,1.0,0.0,1.05,0.95,1.05,0.95
191,'sub_190_0',20.0,1,1,1,1,1.0,0.0,1.05,0.95,1.05,0.95
192,'sub_191_0',20.0,1,1,1,1,1.0,0.0,1.05,0.95,1.05,0.95
193,'sub_192_0',20.0,2,1,1,1,1.0,0.0,1.05,0.95,1.05,0.95
194,'sub_193_0',20.0,1,1,1,1,1.0,0.0,1.05,0.95,1.05,0.95
195,'sub_194_0',20.0,1,1,1,1,1.0,0.0,1.05,0.95,1.05,0.95
196,'sub_195_0',20.0,1,1,1,1,1.0,0.0,1.05,0.95,1.05,0.95
197,'sub_196_0',20.0,2,1,1,1,1.0,0.0,1.05,0.95,1.05,0.95
198,'sub_197_0',20.0,1,1,1,1,1.0,0.0,1.05,0.95,1.05,0.95
199,'sub_198_0',20.0,2,1,1,1,1.0,0.0,1.05,0.95,1.05,0.95
200,'sub_199_0',20.0,2,1,1,1,1.0,0.0,1.05,0.95,1.05,0.95
...
0 / END OF BUS DATA, BEGIN LOAD DATA
1,'01',1,1,1,223.71272361900986,0.0,0.0,0.0,0.0,0.0,1,1,0,0.0,0.0,0,''
2,'01',1,1,1,64.23284149324245,0.0,0.0,0.0,0.0,0.0,1,1,0,0.0,0.0,0,''
3,'01',1,1,1,345.4994450860525,0.0,0.0,0.0,0.0,0.0,1,1,0,0.0,0.0,0,''
5,'01',1,1,1,131.68105800273017,0.0,0.0,0.0,0.0,0.0,1,1,0,0.0,0.0,0,''
6,'01',1,1,1,53.65603222423369,0.0,0.0,0.0,0.0,0.0,1,1,0,0.0,0.0,0,''
7,'01',1,1,1,101.1687475412753,0.0,0.0,0.0,0.0,0.0,1,1,0,0.0,0.0,0,''
10,'01',1,1,1,167.41261055847963,0.0,0.0,0.0,0.0,0.0,1,1,0,0.0,0.0,0,''
14,'01',1,1,1,380.108783032331,0.0,0.0,0.0,0.0,0.0,1,1,0,0.0,0.0,0,''
16,'01',1,1,1,25.566126811796604,0.0,0.0,0.0,0.0,0.0,1,1,0,0.0,0.0,0,''
17,'01',1,1,1,76.57761241374108,0.0,0.0,0.0,0.0,0.0,1,1,0,0.0,0.0,0,''
25,'01',1,1,1,21.958075476497108,0.0,0.0,0.0,0.0,0.0,1,1,0,0.0,0.0,0,''
26,'01',1,1,1,162.9427388757085,0.0,0.0,0.0,0.0,0.0,1,1,0,0.0,0.0,0,''
29,'01',1,1,1,56.369813432613526,0.0,0.0,0.0,0.0,0.0,1,1,0,0.0,0.0,0,''
30,'01',1,1,1,95.14617988380874,0.0,0.0,0.0,0.0,0.0,1,1,0,0.0,0.0,0,''
32,'01',1,1,1,37.987245473682975,0.0,0.0,0.0,0.0,0.0,1,1,0,0.0,0.0,0,''
34,'01',1,1,1,117.94360371494241,0.0,0.0,0.0,0.0,0.0,1,1,0,0.0,0.0,0,''
35,'01',1,1,1,18.481778677159443,0.0,0.0,0.0,0.0,0.0,1,1,0,0.0,0.0,0,''
36,'01',1,1,1,103.6679553102823,0.0,0.0,0.0,0.0,0.0,1,1,0,0.0,0.0,0,''
37,'01',1,1,1,195.4666236087335,0.0,0.0,0.0,0.0,0.0,1,1,0,0.0,0.0,0,''
39,'01',1,1,1,91.89964201064863,0.0,0.0,0.0,0.0,0.0,1,1,0,0.0,0.0,0,''
40,'01',1,1,1,69.5255909536846,0.0,0.0,0.0,0.0,0.0,1,1,0,0.0,0.0,0,''
41,'01',1,1,1,12.752107291472536,0.0,0.0,0.0,0.0,0.0,1,1,0,0.0,0.0,0,''
42,'01',1,1,1,97.6147703944723,0.0,0.0,0.0,0.0,0.0,1,1,0,0.0,0.0,0,''
44,'01',1,1,1,117.73555812408902,0.0,0.0,0.0,0.0,0.0,1,1,0,0.0,0.0,0,''
45,'01',1,1,1,65.58934874075366,0.0,0.0,0.0,0.0,0.0,1,1,0,0.0,0.0,0,''
46,'01',1,1,1,88.49839208458121,0.0,0.0,0.0,0.0,0.0,1,1,0,0.0,0.0,0,''
47,'01',1,1,1,64.09913595035636,0.0,0.0,0.0,0.0,0.0,1,1,0,0.0,0.0,0,''
48,'01',1,1,1,2.7452878019769655,0.0,0.0,0.0,0.0,0.0,1,1,0,0.0,0.0,0,''
53,'01',1,1,1,106.3623261175901,0.0,0.0,0.0,0.0,0.0,1,1,0,0.0,0.0,0,''
54,'01',1,1,1,55.05261638434066,0.0,0.0,0.0,0.0,0.0,1,1,0,0.0,0.0,0,''
55,'01',1,1,1,45.96469766058458,0.0,0.0,0.0,0.0,0.0,1,1,0,0.0,0.0,0,''
56,'01',1,1,1,69.2855105286146,0.0,0.0,0.0,0.0,0.0,1,1,0,0.0,0.0,0,''
57,'01',1,1,1,10.364744525827984,0.0,0.0,0.0,0.0,0.0,1,1,0,0.0,0.0,0,''
60,'01',1,1,1,74.5452445566966,0.0,0.0,0.0,0.0,0.0,1,1,0,0.0,0.0,0,''
61,'01',1,1,1,20.867796618168047,0.0,0.0,0.0,0.0,0.0,1,1,0,0.0,0.0,0,''
63,'01',1,1,1,78.94455550411953,0.0,0.0,0.0,0.0,0.0,1,1,0,0.0,0.0,0,''
64,'01',1,1,1,57.828714948718876,0.0,0.0,0.0,0.0,0.0,1,1,0,0.0,0.0,0,''
65,'01',1,1,1,68.00468419458113,0.0,0.0,0.0,0.0,0.0,1,1,0,0.0,0.0,0,''
66,'01',1,1,1,128.47237521671934,0.0,0.0,0.0,0.0,0.0,1,1,0,0.0,0.0,0,''
67,'01',1,1,1,675.5822060728601,0.0,0.0,0.0,0.0,0.0,1,1,0,0.0,0.0,0,''
69,'01',1,1,1,488.5406388972418,0.0,0.0,0.0,0.0,0.0,1,1,0,0.0,0.0,0,''
70,'01',1,1,1,77.46062501863663,0.0,0.0,0.0,0.0,0.0,1,1,0,0.0,0.0,0,''
72,'01',1,1,1,118.46979817638406,0.0,0.0,0.0,0.0,0.0,1,1,0,0.0,0.0,0,''
74,'01',1,1,1,60.94859158172257,0.0,0.0,0.0,0.0,0.0,1,1,0,0.0,0.0,0,''
76,'01',1,1,1,188.7548809503582,0.0,0.0,0.0,0.0,0.0,1,1,0,0.0,0.0,0,''
77,'01',1,1,1,34.97736117233115,0.0,0.0,0.0,0.0,0.0,1,1,0,0.0,0.0,0,''
79,'01',1,1,1,45.130060084674554,0.0,0.0,0.0,0.0,0.0,1,1,0,0.0,0.0,0,''
81,'01',1,1,1,72.05137015859749,0.0,0.0,0.0,0.0,0.0,1,1,0,0.0,0.0,0,''
87,'01',1,1,1,136.73296165214933,0.0,0.0,0.0,0.0,0.0,1,1,0,0.0,0.0,0,''
89,'01',1,1,1,131.93619033740063,0.0,0.0,0.0,0.0,0.0,1,1,0,0.0,0.0,0,''
92,'01',1,1,1,60.024971912990516,0.0,0.0,0.0,0.0,0.0,1,1,0,0.0,0.0,0,''
93,'01',1,1,1,59.199624926468275,0.0,0.0,0.0,0.0,0.0,1,1,0,0.0,0.0,0,''
94,'01',1,1,1,289.5077647620897,0.0,0.0,0.0,0.0,0.0,1,1,0,0.0,0.0,0,''
97,'01',1,1,1,49.910429939487095,0.0,0.0,0.0,0.0,0.0,1,1,0,0.0,0.0,0,''
99,'01',1,1,1,80.69666500748127,0.0,0.0,0.0,0.0,0.0,1,1,0,0.0,0.0,0,''
101,'01',1,1,1,88.31194071783707,0.0,0.0,0.0,0.0,0.0,1,1,0,0.0,0.0,0,''
102,'01',1,1,1,35.29832285933731,0.0,0.0,0.0,0.0,0.0,1,1,0,0.0,0.0,0,''
103,'01',1,1,1,36.49097748579524,0.0,0.0,0.0,0.0,0.0,1,1,0,0.0,0.0,0,''
104,'01',1,1,1,41.879441692577785,0.0,0.0,0.0,0.0,0.0,1,1,0,0.0,0.0,0,''
105,'01',1,1,1,1993.011000952963,0.0,0.0,0.0,0.0,0.0,1,1,0,0.0,0.0,0,''
109,'01',1,1,1,52.097705308799945,0.0,0.0,0.0,0.0,0.0,1,1,0,0.0,0.0,0,''
111,'01',1,1,1,24.047510137266514,0.0,0.0,0.0,0.0,0.0,1,1,0,0.0,0.0,0,''
112,'01',1,1,1,40.05108090908938,0.0,0.0,0.0,0.0,0.0,1,1,0,0.0,0.0,0,''
113,'01',1,1,1,166.08281946629722,0.0,0.0,0.0,0.0,0.0,1,1,0,0.0,0.0,0,''
117,'01',1,1,1,213.1074576448742,0.0,0.0,0.0,0.0,0.0,1,1,0,0.0,0.0,0,''
119,'01',1,1,1,158.38812271534167,0.0,0.0,0.0,0.0,0.0,1,1,0,0.0,0.0,0,''
121,'01',1,1,1,47.59016074776102,0.0,0.0,0.0,0.0,0.0,1,1,0,0.0,0.0,0,''
122,'01',1,1,1,2538.657580091342,0.0,0.0,0.0,0.0,0.0,1,1,0,0.0,0.0,0,''
124,'01',1,1,1,39.06793130541125,0.0,0.0,0.0,0.0,0.0,1,1,0,0.0,0.0,0,''
125,'01',1,1,1,50.565909055395984,0.0,0.0,0.0,0.0,0.0,1,1,0,0.0,0.0,0,''
126,'01',1,1,1,62.2932584759167,0.0,0.0,0.0,0.0,0.0,1,1,0,0.0,0.0,0,''
129,'01',1,1,1,84.00540588028723,0.0,0.0,0.0,0.0,0.0,1,1,0,0.0,0.0,0,''
133,'01',1,1,1,248.24854349733303,0.0,0.0,0.0,0.0,0.0,1,1,0,0.0,0.0,0,''
135,'01',1,1,1,212.57359812500022,0.0,0.0,0.0,0.0,0.0,1,1,0,0.0,0.0,0,''
136,'01',1,1,1,138.46092805046928,0.0,0.0,0.0,0.0,0.0,1,1,0,0.0,0.0,0,''
140,'01',1,1,1,84.42116028211224,0.0,0.0,0.0,0.0,0.0,1,1,0,0.0,0.0,0,''
143,'01',1,1,1,436.5163990382445,0.0,0.0,0.0,0.0,0.0,1,1,0,0.0,0.0,0,''
144,'01',1,1,1,234.37063984473514,0.0,0.0,0.0,0.0,0.0,1,1,0,0.0,0.0,0,''
145,'01',1,1,1,54.48520921810213,0.0,0.0,0.0,0.0,0.0,1,1,0,0.0,0.0,0,''
148,'01',1,1,1,72.00959054225284,0.0,0.0,0.0,0.0,0.0,1,1,0,0.0,0.0,0,''
149,'01',1,1,1,50.163204200040454,0.0,0.0,0.0,0.0,0.0,1,1,0,0.0,0.0,0,''
150,'01',1,1,1,295.877605268467,0.0,0.0,0.0,0.0,0.0,1,1,0,0.0,0.0,0,''
151,'01',1,1,1,29.336290015985657,0.0,0.0,0.0,0.0,0.0,1,1,0,0.0,0.0,0,''
152,'01',1,1,1,58.24784233586771,0.0,0.0,0.0,0.0,0.0,1,1,0,0.0,0.0,0,''
153,'01',1,1,1,139.8422728882454,0.0,0.0,0.0,0.0,0.0,1,1,0,0.0,0.0,0,''
155,'01',1,1,1,95.33288014329943,0.0,0.0,0.0,0.0,0.0,1,1,0,0.0,0.0,0,''
156,'01',1,1,1,32.15143766742469,0.0,0.0,0.0,0.0,0.0,1,1,0,0.0,0.0,0,''
157,'01',1,1,1,0.5632795317412421,0.0,0.0,0.0,0.0,0.0,1,1,0,0.0,0.0,0,''
160,'01',1,1,1,229.61426305961845,0.0,0.0,0.0,0.0,0.0,1,1,0,0.0,0.0,0,''
161,'01',1,1,1,84.52575144717292,0.0,0.0,0.0,0.0,0.0,1,1,0,0.0,0.0,0,''
164,'01',1,1,1,42.627252702104734,0.0,0.0,0.0,0.0,0.0,1,1,0,0.0,0.0,0,''
165,'01',1,1,1,33.591163475602954,0.0,0.0,0.0,0.0,0.0,1,1,0,0.0,0.0,0,''
166,'01',1,1,1,15.5267897173293,0.0,0.0,0.0,0.0,0.0,1,1,0,0.0,0.0,0,''
167,'01',1,1,1,62.343953063801564,0.0,0.0,0.0,0.0,0.0,1,1,0,0.0,0.0,0,''
168,'01',1,1,1,15.867547183887481,0.0,0.0,0.0,0.0,0.0,1,1,0,0.0,0.0,0,''
170,'01',1,1,1,52.03357381760509,0.0,0.0,0.0,0.0,0.0,1,1,0,0.0,0.0,0,''
171,'01',1,1,1,165.07542977304573,0.0,0.0,0.0,0.0,0.0,1,1,0,0.0,0.0,0,''
175,'01',1,1,1,15.009843073563514,0.0,0.0,0.0,0.0,0.0,1,1,0,0.0,0.0,0,''
176,'01',1,1,1,127.96843095842448,0.0,0.0,0.0,0.0,0.0,1,1,0,0.0,0.0,0,''
179,'01',1,1,1,292.19559685388424,0.0,0.0,0.0,0.0,0.0,1,1,0,0.0,0.0,0,''
183,'01',1,1,1,210.15965394148344,0.0,0.0,0.0,0.0,0.0,1,1,0,0.0,0.0,0,''
185,'01',1,1,1,117.45622238244762,0.0,0.0,0.0,0.0,0.0,1,1,0,0.0,0.0,0,''
187,'01',1,1,1,114.6749892685526,0.0,0.0,0.0,0.0,0.0,1,1,0,0.0,0.0,0,''
194,'01',1,1,1,143.65170623445445,0.0,0.0,0.0,0.0,0.0,1,1,0,0.0,0.0,0,''
196,'01',1,1,1,107.23139882626853,0.0,0.0,0.0,0.0,0.0,1,1,0,0.0,0.0,0,''
198,'01',1,1,1,992.8652146999073,0.0,0.0,0.0,0.0,0.0,1,1,0,0.0,0.0,0,''
203,'01',1,1,1,37.40568789123213,0.0,0.0,0.0,0.0,0.0,1,1,0,0.0,0.0,0,''
204,'01',1,1,1,28.016758440316035,0.0,0.0,0.0,0.0,0.0,1,1,0,0.0,0.0,0,''
205,'01',1,1,1,98.20389126147425,0.0,0.0,0.0,0.0,0.0,1,1,0,0.0,0.0,0,''
206,'01',1,1,1,235.70316624888954,0.0,0.0,0.0,0.0,0.0,1,1,0,0.0,0.0,0,''
207,'01',1,1,1,35.2295433597723,0.0,0.0,0.0,0.0,0.0,1,1,0,0.0,0.0,0,''
210,'01',1,1,1,72.90063462598866,0.0,0.0,0.0,0.0,0.0,1,1,0,0.0,0.0,0,''
211,'01',1,1,1,114.54197802602313,0.0,0.0,0.0,0.0,0.0,1,1,0,0.0,0.0,0,''
213,'01',1,1,1,93.757891369289,0.0,0.0,0.0,0.0,0.0,1,1,0,0.0,0.0,0,''
214,'01',1,1,1,3.0400022593672507,0.0,0.0,0.0,0.0,0.0,1,1,0,0.0,0.0,0,''
217,'01',1,1,1,78.00237496538678,0.0,0.0,0.0,0.0,0.0,1,1,0,0.0,0.0,0,''
224,'01',1,1,1,11.492879209767791,0.0,0.0,0.0,0.0,0.0,1,1,0,0.0,0.0,0,''
228,'01',1,1,1,25.278891804644854,0.0,0.0,0.0,0.0,0.0,1,1,0,0.0,0.0,0,''
229,'01',1,1,1,119.98465004606197,0.0,0.0,0.0,0.0,0.0,1,1,0,0.0,0.0,0,''
230,'01',1,1,1,241.08005055835002,0.0,0.0,0.0,0.0,0.0,1,1,0,0.0,0.0,0,''
231,'01',1,1,1,35.22948886440267,0.0,0.0,0.0,0.0,0.0,1,1,0,0.0,0.0,0,''
232,'01',1,1,1,152.68573877557242,0.0,0.0,0.0,0.0,0.0,1,1,0,0.0,0.0,0,''
236,'01',1,1,1,164.94727635823716,0.0,0.0,0.0,0.0,0.0,1,1,0,0.0,0.0,0,''
240,'01',1,1,1,12.01956152315326,0.0,0.0,0.0,0.0,0.0,1,1,0,0.0,0.0,0,''
242,'01',1,1,1,248.38993047786838,0.0,0.0,0.0,0.0,0.0,1,1,0,0.0,0.0,0,''
245,'01',1,1,1,192.3849213222043,0.0,0.0,0.0,0.0,0.0,1,1,0,0.0,0.0,0,''
248,'01',1,1,1,93.77014409006439,0.0,0.0,0.0,0.0,0.0,1,1,0,0.0,0.0,0,''
249,'01',1,1,1,64.25641064695321,0.0,0.0,0.0,0.0,0.0,1,1,0,0.0,0.0,0,''
250,'01',1,1,1,460.1257392388706,0.0,0.0,0.0,0.0,0.0,1,1,0,0.0,0.0,0,''
252,'01',1,1,1,109.74342130691058,0.0,0.0,0.0,0.0,0.0,1,1,0,0.0,0.0,0,''
255,'01',1,1,1,16.816585722164923,0.0,0.0,0.0,0.0,0.0,1,1,0,0.0,0.0,0,''
256,'01',1,1,1,64.08261146900865,0.0,0.0,0.0,0.0,0.0,1,1,0,0.0,0.0,0,''
258,'01',1,1,1,238.59636153737122,0.0,0.0,0.0,0.0,0.0,1,1,0,0.0,0.0,0,''
259,'01',1,1,1,16.11750949066626,0.0,0.0,0.0,0.0,0.0,1,1,0,0.0,0.0,0,''
261,'01',1,1,1,452.866692116957,0.0,0.0,0.0,0.0,0.0,1,1,0,0.0,0.0,0,''
262,'01',1,1,1,143.76507931562375,0.0,0.0,0.0,0.0,0.0,1,1,0,0.0,0.0,0,''
263,'01',1,1,1,237.5239599955443,0.0,0.0,0.0,0.0,0.0,1,1,0,0.0,0.0,0,''
265,'01',1,1,1,1.1616514027126688,0.0,0.0,0.0,0.0,0.0,1,1,0,0.0,0.0,0,''
266,'01',1,1,1,38.7712385453448,0.0,0.0,0.0,0.0,0.0,1,1,0,0.0,0.0,0,''
268,'01',1,1,1,160.3805865397931,0.0,0.0,0.0,0.0,0.0,1,1,0,0.0,0.0,0,''
272,'01',1,1,1,85.60054594010364,0.0,0.0,0.0,0.0,0.0,1,1,0,0.0,0.0,0,''
273,'01',1,1,1,159.214136684946,0.0,0.0,0.0,0.0,0.0,1,1,0,0.0,0.0,0,''
276,'01',1,1,1,207.89581253693052,0.0,0.0,0.0,0.0,0.0,1,1,0,0.0,0.0,0,''
278,'01',1,1,1,193.21811340073046,0.0,0.0,0.0,0.0,0.0,1,1,0,0.0,0.0,0,''
279,'01',1,1,1,68.90505906967002,0.0,0.0,0.0,0.0,0.0,1,1,0,0.0,0.0,0,''
280,'01',1,1,1,59.24500817412124,0.0,0.0,0.0,0.0,0.0,1,1,0,0.0,0.0,0,''
282,'01',1,1,1,101.32909740672713,0.0,0.0,0.0,0.0,0.0,1,1,0,0.0,0.0,0,''
283,'01',1,1,1,212.23768613359954,0.0,0.0,0.0,0.0,0.0,1,1,0,0.0,0.0,0,''
284,'01',1,1,1,91.93312440047202,0.0,0.0,0.0,0.0,0.0,1,1,0,0.0,0.0,0,''
286,'01',1,1,1,194.1573725285072,0.0,0.0,0.0,0.0,0.0,1,1,0,0.0,0.0,0,''
287,'01',1,1,1,18.578826938822736,0.0,0.0,0.0,0.0,0.0,1,1,0,0.0,0.0,0,''
288,'01',1,1,1,104.47284784281388,0.0,0.0,0.0,0.0,0.0,1,1,0,0.0,0.0,0,''
289,'01',1,1,1,2.254857990283205,0.0,0.0,0.0,0.0,0.0,1,1,0,0.0,0.0,0,''
291,'01',1,1,1,123.48382467966255,0.0,0.0,0.0,0.0,0.0,1,1,0,0.0,0.0,0,''
293,'01',1,1,1,48.87705945123792,0.0,0.0,0.0,0.0,0.0,1,1,0,0.0,0.0,0,''
294,'01',1,1,1,146.45599485131956,0.0,0.0,0.0,0.0,0.0,1,1,0,0.0,0.0,0,''
295,'01',1,1,1,5.414628254497132,0.0,0.0,0.0,0.0,0.0,1,1,0,0.0,0.0,0,''
298,'01',1,1,1,67.2914342933925,0.0,0.0,0.0,0.0,0.0,1,1,0,0.0,0.0,0,''
299,'01',1,1,1,64.36658074092472,0.0,0.0,0.0,0.0,0.0,1,1,0,0.0,0.0,0,''
300,'01',1,1,1,18.233841602432875,0.0,0.0,0.0,0.0,0.0,1,1,0,0.0,0.0,0,''
301,'01',1,1,1,9.6086493096041,0.0,0.0,0.0,0.0,0.0,1,1,0,0.0,0.0,0,''
302,'01',1,1,1,158.53968434825111,0.0,0.0,0.0,0.0,0.0,1,1,0,0.0,0.0,0,''
306,'01',1,1,1,464.06093140075257,0.0,0.0,0.0,0.0,0.0,1,1,0,0.0,0.0,0,''
310,'01',1,1,1,159.10797218228277,0.0,0.0,0.0,0.0,0.0,1,1,0,0.0,0.0,0,''
311,'01',1,1,1,345.17103433949325,0.0,0.0,0.0,0.0,0.0,1,1,0,0.0,0.0,0,''
312,'01',1,1,1,177.3079250419581,0.0,0.0,0.0,0.0,0.0,1,1,0,0.0,0.0,0,''
313,'01',1,1,1,26.316552717438405,0.0,0.0,0.0,0.0,0.0,1,1,0,0.0,0.0,0,''
314,'01',1,1,1,103.5685480873091,0.0,0.0,0.0,0.0,0.0,1,1,0,0.0,0.0,0,''
316,'01',1,1,1,30.581052680557892,0.0,0.0,0.0,0.0,0.0,1,1,0,0.0,0.0,0,''
317,'01',1,1,1,48.56534781263859,0.0,0.0,0.0,0.0,0.0,1,1,0,0.0,0.0,0,''
318,'01',1,1,1,349.7925616513692,0.0,0.0,0.0,0.0,0.0,1,1,0,0.0,0.0,0,''
319,'01',1,1,1,97.67487152231455,0.0,0.0,0.0,0.0,0.0,1,1,0,0.0,0.0,0,''
321,'01',1,1,1,399.36347675632885,0.0,0.0,0.0,0.0,0.0,1,1,0,0.0,0.0,0,''
323,'01',1,1,1,146.94111313882502,0.0,0.0,0.0,0.0,0.0,1,1,0,0.0,0.0,0,''
324,'01',1,1,1,130.61537669669445,0.0,0.0,0.0,0.0,0.0,1,1,0,0.0,0.0,0,''
326,'01',1,1,1,45.42178735125511,0.0,0.0,0.0,0.0,0.0,1,1,0,0.0,0.0,0,''
328,'01',1,1,1,212.70314632870114,0.0,0.0,0.0,0.0,0.0,1,1,0,0.0,0.0,0,''
329,'01',1,1,1,11.392205429974114,0.0,0.0,0.0,0.0,0.0,1,1,0,0.0,0.0,0,''
330,'01',1,1,1,68.17309411884416,0.0,0.0,0.0,0.0,0.0,1,1,0,0.0,0.0,0,''
333,'01',1,1,1,89.44130104707844,0.0,0.0,0.0,0.0,0.0,1,1,0,0.0,0.0,0,''
334,'01',1,1,1,135.79008405610958,0.0,0.0,0.0,0.0,0.0,1,1,0,0.0,0.0,0,''
336,'01',1,1,1,330.015232186897,0.0,0.0,0.0,0.0,0.0,1,1,0,0.0,0.0,0,''
337,'01',1,1,1,83.90296534288865,0.0,0.0,0.0,0.0,0.0,1,1,0,0.0,0.0,0,''
341,'01',1,1,1,101.08602269810244,0.0,0.0,0.0,0.0,0.0,1,1,0,0.0,0.0,0,''
342,'01',1,1,1,11.393838259810535,0.0,0.0,0.0,0.0,0.0,1,1,0,0.0,0.0,0,''
343,'01',1,1,1,158.35896920473218,0.0,0.0,0.0,0.0,0.0,1,1,0,0.0,0.0,0,''
344,'01',1,1,1,351.4516765312803,0.0,0.0,0.0,0.0,0.0,1,1,0,0.0,0.0,0,''
347,'01',1,1,1,61.476698998148315,0.0,0.0,0.0,0.0,0.0,1,1,0,0.0,0.0,0,''
348,'01',1,1,1,333.11801198544515,0.0,0.0,0.0,0.0,0.0,1,1,0,0.0,0.0,0,''
349,'01',1,1,1,9.265057178598763,0.0,0.0,0.0,0.0,0.0,1,1,0,0.0,0.0,0,''
350,'01',1,1,1,165.3903829701265,0.0,0.0,0.0,0.0,0.0,1,1,0,0.0,0.0,0,''
351,'01',1,1,1,215.39225167583382,0.0,0.0,0.0,0.0,0.0,1,1,0,0.0,0.0,0,''
352,'01',1,1,1,5.692095344905937,0.0,0.0,0.0,0.0,0.0,1,1,0,0.0,0.0,0,''
353,'01',1,1,1,10.514420564780728,0.0,0.0,0.0,0.0,0.0,1,1,0,0.0,0.0,0,''
355,'01',1,1,1,535.5140624527655,0.0,0.0,0.0,0.0,0.0,1,1,0,0.0,0.0,0,''
356,'01',1,1,1,7.65348651382478,0.0,0.0,0.0,0.0,0.0,1,1,0,0.0,0.0,0,''
357,'01',1,1,1,83.35405727688509,0.0,0.0,0.0,0.0,0.0,1,1,0,0.0,0.0,0,''
359,'01',1,1,1,94.57981770572668,0.0,0.0,0.0,0.0,0.0,1,1,0,0.0,0.0,0,''
362,'01',1,1,1,7.43276185421286,0.0,0.0,0.0,0.0,0.0,1,1,0,0.0,0.0,0,''
364,'01',1,1,1,294.70077231498414,0.0,0.0,0.0,0.0,0.0,1,1,0,0.0,0.0,0,''
...
0 / END OF LOAD DATA, BEGIN FIXED SHUNT DATA
0 / END OF FIXED SHUNT DATA, BEGIN GENERATOR DATA
9,'01',322.16049808689746,0.0,100.92565973884892,-52.44130009814553,1.0,0,0,100.0,0.0,1.0,0.0,0.0,1.0,1,100.0,4999.0,-4999.0,0,1,1.0,0,1.0,0,1.0,0,1.0,0,1.0
13,'01',298.2167401736538,0.0,190.35137207792684,-11.21678898980135,1.0,0,0,100.0,0.0,1.0,0.0,0.0,1.0,1,100.0,4999.0,-4999.0,0,1,1.0,0,1.0,0,1.0,0,1.0,0,1.0
20,'01',211.0483403747171,0.0,140.219075328686,-60.49231344394422,1.0,0,0,100.0,0.0,1.0,0.0,0.0,1.0,1,100.0,4999.0,-4999.0,0,1,1.0,0,1.0,0,1.0,0,1.0,0,1.0
23,'01',462.65524001290515,0.0,238.60776091097472,-48.8162490277738,1.0,0,0,100.0,0.0,1.0,0.0,0.0,1.0,1,100.0,4999.0,-4999.0,0,1,1.0,0,1.0,0,1.0,0,1.0,0,1.0
24,'01',1165.384517963093,0.0,442.35463684731076,-66.6687682874656,1.0,0,0,100.0,0.0,1.0,0.0,0.0,1.0,1,100.0,4999.0,-4999.0,0,1,1.0,0,1.0,0,1.0,0,1.0,0,1.0
28,'01',408.77759406416544,0.0,245.31283099042773,-27.497468510576343,1.0,0,0,100.0,0.0,1.0,0.0,0.0,1.0,1,100.0,4999.0,-4999.0,0,1,1.0,0,1.0,0,1.0,0,1.0,0,1.0
49,'01',16.19778021074207,0.0,27.476672440388622,-6.828310008238947,1.0,0,0,100.0,0.0,1.0,0.0,0.0,1.0,1,100.0,4999.0,-4999.0,0,1,1.0,0,1.0,0,1.0,0,1.0,0,1.0
59,'01',0.0,0.0,101.31236918089976,-41.23908615274694,1.0,0,0,100.0,0.0,1.0,0.0,0.0,1.0,1,100.0,4999.0,-4999.0,0,1,1.0,0,1.0,0,1.0,0,1.0,0,1.0
62,'01',336.2699645801099,0.0,147.34929334285746,-94.51855435734475,1.0,0,0,100.0,0.0,1.0,0.0,0.0,1.0,1,100.0,4999.0,-4999.0,0,1,1.0,0,1.0,0,1.0,0,1.0,0,1.0
71,'01',0.0,0.0,53.23600806931894,-29.656576792232006,1.0,0,0,100.0,0.0,1.0,0.0,0.0,1.0,1,100.0,4999.0,-4999.0,0,1,1.0,0,1.0,0,1.0,0,1.0,0,1.0
78,'01',12.8428928079051,0.0,21.38146493214578,-8.295033882837705,1.0,0,0,100.0,0.0,1.0,0.0,0.0,1.0,1,100.0,4999.0,-4999.0,0,1,1.0,0,1.0,0,1.0,0,1.0,0,1.0
80,'01',0.0,0.0,229.61918036427872,-148.32498044164365,1.0,0,0,100.0,0.0,1.0,0.0,0.0,1.0,1,100.0,4999.0,-4999.0,0,1,1.0,0,1.0,0,1.0,0,1.0,0,1.0
82,'01',496.7945581180351,0.0,322.8993670101201,-84.23043369733546,1.0,0,0,100.0,0.0,1.0,0.0,0.0,1.0,1,100.0,4999.0,-4999.0,0,1,1.0,0,1.0,0,1.0,0,1.0,0,1.0
84,'01',203.69515211754913,0.0,68.73272469462928,-34.09670371474458,1.0,0,0,100.0,0.0,1.0,0.0,0.0,1.0,1,100.0,4999.0,-4999.0,0,1,1.0,0,1.0,0,1.0,0,1.0,0,1.0
85,'01',0.0,0.0,469.4228293572064,-89.03190472609693,1.0,0,0,100.0,0.0,1.0,0.0,0.0,1.0,1,100.0,4999.0,-4999.0,0,1,1.0,0,1.0,0,1.0,0,1.0,0,1.0
88,'01',5.0469498098777485,0.0,9.753476869725425,-0.005875241273561742,1.0,0,0,100.0,0.0,1.0,0.0,0.0,1.0,1,100.0,4999.0,-4999.0,0,1,1.0,0,1.0,0,1.0,0,1.0,0,1.0
90,'01',25.286627349536,0.0,19.913978875838733,-7.747118847734614,1.0,0,0,100.0,0.0,1.0,0.0,0.0,1.0,1,100.0,4999.0,-4999.0,0,1,1.0,0,1.0,0,1.0,0,1.0,0,1.0
95,'01',21.89603739069538,0.0,38.833645141750544,-11.99218995114572,1.0,0,0,100.0,0.0,1.0,0.0,0.0,1.0,1,100.0,4999.0,-4999.0,0,1,1.0,0,1.0,0,1.0,0,1.0,0,1.0
100,'01',1.0E-4,0.0,754.2122677246051,-590.4779181891704,1.0,0,0,100.0,0.0,1.0,0.0,0.0,1.0,1,100.0,4999.0,-4999.0,0,1,1.0,0,1.0,0,1.0,0,1.0,0,1.0
106,'01',201.80293256050666,0.0,92.76397165199056,-23.81280740958754,1.0,0,0,100.0,0.0,1.0,0.0,0.0,1.0,1,100.0,4999.0,-4999.0,0,1,1.0,0,1.0,0,1.0,0,1.0,0,1.0
107,'01',334.7116966625502,0.0,196.61629457137204,-5.838596369620327,1.0,0,0,100.0,0.0,1.0,0.0,0.0,1.0,1,100.0,4999.0,-4999.0,0,1,1.0,0,1.0,0,1.0,0,1.0,0,1.0
108,'01',2.343042865423996,0.0,11.750665517285869,-9.144120569859508,1.0,0,0,100.0,0.0,1.0,0.0,0.0,1.0,1,100.0,4999.0,-4999.0,0,1,1.0,0,1.0,0,1.0,0,1.0,0,1.0
114,'01',248.58099198581561,0.0,140.91971623909734,-58.14283304700851,1.0,0,0,100.0,0.0,1.0,0.0,0.0,1.0,1,100.0,4999.0,-4999.0,0,1,1.0,0,1.0,0,1.0,0,1.0,0,1.0
115,'01',0.0,0.0,547.4771195889082,-2.546992327129635,1.0,0,0,100.0,0.0,1.0,0.0,0.0,1.0,1,100.0,4999.0,-4999.0,0,1,1.0,0,1.0,0,1.0,0,1.0,0,1.0
120,'01',0.0,0.0,174.3609686252626,-80.70572814836163,1.0,0,0,100.0,0.0,1.0,0.0,0.0,1.0,1,100.0,4999.0,-4999.0,0,1,1.0,0,1.0,0,1.0,0,1.0,0,1.0
123,'01',4.093689067110444,0.0,3.025090306674959,-2.5154078855043407,1.0,0,0,100.0,0.0,1.0,0.0,0.0,1.0,1,100.0,4999.0,-4999.0,0,1,1.0,0,1.0,0,1.0,0,1.0,0,1.0
127,'01',1723.4753973777636,0.0,876.4673307330344,-435.3194566755114,1.0,0,0,100.0,0.0,1.0,0.0,0.0,1.0,1,100.0,4999.0,-4999.0,0,1,1.0,0,1.0,0,1.0,0,1.0,0,1.0
130,'01',768.7928780640269,0.0,230.9073490178466,-61.13910136229602,1.0,0,0,100.0,0.0,1.0,0.0,0.0,1.0,1,100.0,4999.0,-4999.0,0,1,1.0,0,1.0,0,1.0,0,1.0,0,1.0
131,'01',33.18756281763577,0.0,47.12767196889067,-2.5330255185103394,1.0,0,0,100.0,0.0,1.0,0.0,0.0,1.0,1,100.0,4999.0,-4999.0,0,1,1.0,0,1.0,0,1.0,0,1.0,0,1.0
132,'01',1337.0452569023519,0.0,608.7570957627341,-67.35457521323664,1.0,0,0,100.0,0.0,1.0,0.0,0.0,1.0,1,100.0,4999.0,-4999.0,0,1,1.0,0,1.0,0,1.0,0,1.0,0,1.0
137,'01',22.812067997736246,0.0,21.501711954766474,-3.9476539800357497,1.0,0,0,100.0,0.0,1.0,0.0,0.0,1.0,1,100.0,4999.0,-4999.0,0,1,1.0,0,1.0,0,1.0,0,1.0,0,1.0
138,'01',109.21868431288237,0.0,61.50328816742504,-11.999255748997415,1.0,0,0,100.0,0.0,1.0,0.0,0.0,1.0,1,100.0,4999.0,-4999.0,0,1,1.0,0,1.0,0,1.0,0,1.0,0,1.0
139,'01',97.96450987921064,0.0,30.119630327103152,-2.9056521925169614,1.0,0,0,100.0,0.0,1.0,0.0,0.0,1.0,1,100.0,4999.0,-4999.0,0,1,1.0,0,1.0,0,1.0,0,1.0,0,1.0
142,'01',16.9560915810769,0.0,13.769260482410902,-5.110941087809756,1.0,0,0,100.0,0.0,1.0,0.0,0.0,1.0,1,100.0,4999.0,-4999.0,0,1,1.0,0,1.0,0,1.0,0,1.0,0,1.0
146,'01',346.35657174056735,0.0,226.60158831314138,-45.878088466412024,1.0,0,0,100.0,0.0,1.0,0.0,0.0,1.0,1,100.0,4999.0,-4999.0,0,1,1.0,0,1.0,0,1.0,0,1.0,0,1.0
154,'01',195.3078045796343,0.0,90.06286239193447,-10.602753365621181,1.0,0,0,100.0,0.0,1.0,0.0,0.0,1.0,1,100.0,4999.0,-4999.0,0,1,1.0,0,1.0,0,1.0,0,1.0,0,1.0
163,'01',47.00798113010504,0.0,32.20487769175148,-3.1396731703653873,1.0,0,0,100.0,0.0,1.0,0.0,0.0,1.0,1,100.0,4999.0,-4999.0,0,1,1.0,0,1.0,0,1.0,0,1.0,0,1.0
169,'01',16.99065454287473,0.0,31.51496543884739,-11.724947938760417,1.0,0,0,100.0,0.0,1.0,0.0,0.0,1.0,1,100.0,4999.0,-4999.0,0,1,1.0,0,1.0,0,1.0,0,1.0,0,1.0
173,'01',160.8695946607452,0.0,94.9615340152708,-16.472753166672017,1.0,0,0,100.0,0.0,1.0,0.0,0.0,1.0,1,100.0,4999.0,-4999.0,0,1,1.0,0,1.0,0,1.0,0,1.0,0,1.0
178,'01',249.90746722995766,0.0,151.6425590328073,-12.830081608467674,1.0,0,0,100.0,0.0,1.0,0.0,0.0,1.0,1,100.0,4999.0,-4999.0,0,1,1.0,0,1.0,0,1.0,0,1.0,0,1.0
180,'01',15.47069590723342,0.0,17.89090766277179,-8.175517860561353,1.0,0,0,100.0,0.0,1.0,0.0,0.0,1.0,1,100.0,4999.0,-4999.0,0,1,1.0,0,1.0,0,1.0,0,1.0,0,1.0
193,'01',1157.7341298933286,0.0,583.8503751408415,-84.88905137720138,1.0,0,0,100.0,0.0,1.0,0.0,0.0,1.0,1,100.0,4999.0,-4999.0,0,1,1.0,0,1.0,0,1.0,0,1.0,0,1.0
197,'01',333.04885280501475,0.0,148.66404230040783,-15.088683923097115,1.0,0,0,100.0,0.0,1.0,0.0,0.0,1.0,1,100.0,4999.0,-4999.0,0,1,1.0,0,1.0,0,1.0,0,1.0,0,1.0
199,'01',1278.6835290730298,0.0,715.4508624795592,-279.0995179037539,1.0,0,0,100.0,0.0,1.0,0.0,0.0,1.0,1,100.0,4999.0,-4999.0,0,1,1.0,0,1.0,0,1.0,0,1.0,0,1.0
200,'01',186.60360820549752,0.0,89.27554650000123,-6.456264172295338,1.0,0,0,100.0,0.0,1.0,0.0,0.0,1.0,1,100.0,4999.0,-4999.0,0,1,1.0,0,1.0,0,1.0,0,1.0,0,1.0
202,'01',6.139519272490431,0.0,2.8515963262953843,-1.1980747466593238,1.0,0,0,100.0,0.0,1.0,0.0,0.0,1.0,1,100.0,4999.0,-4999.0,0,1,1.0,0,1.0,0,1.0,0,1.0,0,1.0
208,'01',7.495979848315538,0.0,41.120620893994875,-8.942480508147938,1.0,0,0,100.0,0.0,1.0,0.0,0.0,1.0,1,100.0,4999.0,-4999.0,0,1,1.0,0,1.0,0,1.0,0,1.0,0,1.0
218,'01',441.9770421728032,0.0,222.20740497868843,-29.15552843328489,1.0,0,0,100.0,0.0,1.0,0.0,0.0,1.0,1,100.0,4999.0,-4999.0,0,1,1.0,0,1.0,0,1.0,0,1.0,0,1.0
219,'01',313.6254655926685,0.0,177.97924958939961,-28.57818474259366,1.0,0,0,100.0,0.0,1.0,0.0,0.0,1.0,1,100.0,4999.0,-4999.0,0,1,1.0,0,1.0,0,1.0,0,1.0,0,1.0
225,'01',248.39233776262193,0.0,173.73898414310187,-20.268097882973485,1.0,0,0,100.0,0.0,1.0,0.0,0.0,1.0,1,100.0,4999.0,-4999.0,0,1,1.0,0,1.0,0,1.0,0,1.0,0,1.0
226,'01',741.1814924574606,0.0,409.19028325448147,-60.170096449723665,1.0,0,0,100.0,0.0,1.0,0.0,0.0,1.0,1,100.0,4999.0,-4999.0,0,1,1.0,0,1.0,0,1.0,0,1.0,0,1.0
233,'01',172.71694522636685,0.0,69.25063631432043,-10.63103843071703,1.0,0,0,100.0,0.0,1.0,0.0,0.0,1.0,1,100.0,4999.0,-4999.0,0,1,1.0,0,1.0,0,1.0,0,1.0,0,1.0
235,'01',1750.7535840090504,0.0,800.3290839961603,-406.98493857341106,1.0,0,0,100.0,0.0,1.0,0.0,0.0,1.0,1,100.0,4999.0,-4999.0,0,1,1.0,0,1.0,0,1.0,0,1.0,0,1.0
237,'01',456.10566580150504,0.0,155.0797881418336,-72.26950315556572,1.0,0,0,100.0,0.0,1.0,0.0,0.0,1.0,1,100.0,4999.0,-4999.0,0,1,1.0,0,1.0,0,1.0,0,1.0,0,1.0
243,'01',0.0,0.0,127.10218361957988,-32.07922009319184,1.0,0,0,100.0,0.0,1.0,0.0,0.0,1.0,1,100.0,4999.0,-4999.0,0,1,1.0,0,1.0,0,1.0,0,1.0,0,1.0
246,'01',10.142301512944117,0.0,11.88272457850425,-0.005629224721493698,1.0,0,0,100.0,0.0,1.0,0.0,0.0,1.0,1,100.0,4999.0,-4999.0,0,1,1.0,0,1.0,0,1.0,0,1.0,0,1.0
251,'01',15.631920310983725,0.0,94.90712999252432,-11.13951833833125,1.0,0,0,100.0,0.0,1.0,0.0,0.0,1.0,1,100.0,4999.0,-4999.0,0,1,1.0,0,1.0,0,1.0,0,1.0,0,1.0
253,'01',261.89801181843785,0.0,96.2051519430099,-44.223323337947306,1.0,0,0,100.0,0.0,1.0,0.0,0.0,1.0,1,100.0,4999.0,-4999.0,0,1,1.0,0,1.0,0,1.0,0,1.0,0,1.0
257,'01',35.52880227943091,0.0,21.92986325768611,-5.8729603413572296,1.0,0,0,100.0,0.0,1.0,0.0,0.0,1.0,1,100.0,4999.0,-4999.0,0,1,1.0,0,1.0,0,1.0,0,1.0,0,1.0
264,'01',1821.413154484287,0.0,1213.910280757727,-211.50579891247259,1.0,0,0,100.0,0.0,1.0,0.0,0.0,1.0,1,100.0,4999.0,-4999.0,0,1,1.0,0,1.0,0,1.0,0,1.0,0,1.0
267,'01',374.7221089770945,0.0,192.44307128795683,-52.26996187529271,1.0,0,0,100.0,0.0,1.0,0.0,0.0,1.0,1,100.0,4999.0,-4999.0,0,1,1.0,0,1.0,0,1.0,0,1.0,0,1.0
269,'01',128.85515961772253,0.0,67.70524846081727,-22.664408971879954,1.0,0,0,100.0,0.0,1.0,0.0,0.0,1.0,1,100.0,4999.0,-4999.0,0,1,1.0,0,1.0,0,1.0,0,1.0,0,1.0
270,'01',1543.6988347209826,0.0,889.9080737901486,-407.28571893708914,1.0,0,0,100.0,0.0,1.0,0.0,0.0,1.0,1,100.0,4999.0,-4999.0,0,1,1.0,0,1.0,0,1.0,0,1.0,0,1.0
271,'01',1075.4587058647526,0.0,493.52396029633553,-163.65219362952504,1.0,0,0,100.0,0.0,1.0,0.0,0.0,1.0,1,100.0,4999.0,-4999.0,0,1,1.0,0,1.0,0,1.0,0,1.0,0,1.0
275,'01',0.0,0.0,135.70000336523364,-84.55242265515929,1.0,0,0,100.0,0.0,1.0,0.0,0.0,1.0,1,100.0,4999.0,-4999.0,0,1,1.0,0,1.0,0,1.0,0,1.0,0,1.0
277,'01',457.1553929486143,0.0,173.34443365174482,-132.45143832953482,1.0,0,0,100.0,0.0,1.0,0.0,0.0,1.0,1,100.0,4999.0,-4999.0,0,1,1.0,0,1.0,0,1.0,0,1.0,0,1.0
290,'01',214.44784492789145,0.0,136.7765115758813,-30.82696237775409,1.0,0,0,100.0,0.0,1.0,0.0,0.0,1.0,1,100.0,4999.0,-4999.0,0,1,1.0,0,1.0,0,1.0,0,1.0,0,1.0
292,'01',79.71852245199663,0.0,127.9891987229231,-37.52681241062906,1.0,0,0,100.0,0.0,1.0,0.0,0.0,1.0,1,100.0,4999.0,-4999.0,0,1,1.0,0,1.0,0,1.0,0,1.0,0,1.0
296,'01',113.18305472688611,0.0,66.52898984451238,-23.49944997819215,1.0,0,0,100.0,0.0,1.0,0.0,0.0,1.0,1,100.0,4999.0,-4999.0,0,1,1.0,0,1.0,0,1.0,0,1.0,0,1.0
304,'01',491.58632544328975,0.0,232.41465605308323,-141.2432381437373,1.0,0,0,100.0,0.0,1.0,0.0,0.0,1.0,1,100.0,4999.0,-4999.0,0,1,1.0,0,1.0,0,1.0,0,1.0,0,1.0
307,'01',0.0,0.0,580.2879013535162,-39.82540224772675,1.0,0,0,100.0,0.0,1.0,0.0,0.0,1.0,1,100.0,4999.0,-4999.0,0,1,1.0,0,1.0,0,1.0,0,1.0,0,1.0
308,'01',2.390912703823657,0.0,1.866203016935103,-0.5845117100116259,1.0,0,0,100.0,0.0,1.0,0.0,0.0,1.0,1,100.0,4999.0,-4999.0,0,1,1.0,0,1.0,0,1.0,0,1.0,0,1.0
309,'01',225.2578029239221,0.0,116.32720737327205,-4.222386708784439,1.0,0,0,100.0,0.0,1.0,0.0,0.0,1.0,1,100.0,4999.0,-4999.0,0,1,1.0,0,1.0,0,1.0,0,1.0,0,1.0
315,'01',19.26117780285484,0.0,44.13423965452882,-25.865573387900344,1.0,0,0,100.0,0.0,1.0,0.0,0.0,1.0,1,100.0,4999.0,-4999.0,0,1,1.0,0,1.0,0,1.0,0,1.0,0,1.0
320,'01',220.6159978421375,0.0,126.60933927017932,-62.471594191452176,1.0,0,0,100.0,0.0,1.0,0.0,0.0,1.0,1,100.0,4999.0,-4999.0,0,1,1.0,0,1.0,0,1.0,0,1.0,0,1.0
322,'01',1.662990794162081,0.0,21.622923484935495,-11.67834469255755,1.0,0,0,100.0,0.0,1.0,0.0,0.0,1.0,1,100.0,4999.0,-4999.0,0,1,1.0,0,1.0,0,1.0,0,1.0,0,1.0
331,'01',555.1855278189685,0.0,365.3018899038109,-116.58111330444353,1.0,0,0,100.0,0.0,1.0,0.0,0.0,1.0,1,100.0,4999.0,-4999.0,0,1,1.0,0,1.0,0,1.0,0,1.0,0,1.0
335,'01',382.46921970108565,0.0,229.39952665130357,-30.716884769181817,1.0,0,0,100.0,0.0,1.0,0.0,0.0,1.0,1,100.0,4999.0,-4999.0,0,1,1.0,0,1.0,0,1.0,0,1.0,0,1.0
339,'01',0.0,0.0,446.03114672990506,-192.72363233317046,1.0,0,0,100.0,0.0,1.0,0.0,0.0,1.0,1,100.0,4999.0,-4999.0,0,1,1.0,0,1.0,0,1.0,0,1.0,0,1.0
345,'01',26.938288613363447,0.0,49.111545189238846,-32.59092815479511,1.0,0,0,100.0,0.0,1.0,0.0,0.0,1.0,1,100.0,4999.0,-4999.0,0,1,1.0,0,1.0,0,1.0,0,1.0,0,1.0
346,'01',478.5069727572495,0.0,174.8843724926304,-116.35513598807532,1.0,0,0,100.0,0.0,1.0,0.0,0.0,1.0,1,100.0,4999.0,-4999.0,0,1,1.0,0,1.0,0,1.0,0,1.0,0,1.0
358,'01',0.0,0.0,319.50861447825645,-75.73231260288904,1.0,0,0,100.0,0.0,1.0,0.0,0.0,1.0,1,100.0,4999.0,-4999.0,0,1,1.0,0,1.0,0,1.0,0,1.0,0,1.0
360,'01',137.44368839525177,0.0,68.19276232334917,-33.783783714026725,1.0,0,0,100.0,0.0,1.0,0.0,0.0,1.0,1,100.0,4999.0,-4999.0,0,1,1.0,0,1.0,0,1.0,0,1.0,0,1.0
363,'01',256.9206643522424,0.0,84.48434235988037,-74.23069053411258,1.0,0,0,100.0,0.0,1.0,0.0,0.0,1.0,1,100.0,4999.0,-4999.0,0,1,1.0,0,1.0,0,1.0,0,1.0,0,1.0
365,'01',0.0,0.0,78.2477061926017,-48.5195478388237,1.0,0,0,100.0,0.0,1.0,0.0,0.0,1.0,1,100.0,4999.0,-4999.0,0,1,1.0,0,1.0,0,1.0,0,1.0,0,1.0
373,'01',13.66734241850109,0.0,28.822285992361554,-14.587314331148368,1.0,0,0,100.0,0.0,1.0,0.0,0.0,1.0,1,100.0,4999.0,-4999.0,0,1,1.0,0,1.0,0,1.0,0,1.0,0,1.0
380,'01',199.20329066641253,0.0,84.00899243513462,-24.179426304629892,1.0,0,0,100.0,0.0,1.0,0.0,0.0,1.0,1,100.0,4999.0,-4999.0,0,1,1.0,0,1.0,0,1.0,0,1.0,0,1.0
381,'01',170.562099787344,0.0,55.231093189135706,-25.94307994096607,1.0,0,0,100.0,0.0,1.0,0.0,0.0,1.0,1,100.0,4999.0,-4999.0,0,1,1.0,0,1.0,0,1.0,0,1.0,0,1.0
383,'01',2264.1143998187977,0.0,1127.581124192262,-285.262022341292,1.0,0,0,100.0,0.0,1.0,0.0,0.0,1.0,1,100.0,4999.0,-4999.0,0,1,1.0,0,1.0,0,1.0,0,1.0,0,1.0
388,'01',2.9250456969557295,0.0,1.0635760368231972,-0.175713152650073,1.0,0,0,100.0,0.0,1.0,0.0,0.0,1.0,1,100.0,4999.0,-4999.0,0,1,1.0,0,1.0,0,1.0,0,1.0,0,1.0
392,'01',779.8218806674126,0.0,409.67207882611126,-36.74828862243032,1.0,0,0,100.0,0.0,1.0,0.0,0.0,1.0,1,100.0,4999.0,-4999.0,0,1,1.0,0,1.0,0,1.0,0,1.0,0,1.0
400,'01',0.0,0.0,344.8635176019973,-62.42285456463842,1.0,0,0,100.0,0.0,1.0,0.0,0.0,1.0,1,100.0,4999.0,-4999.0,0,1,1.0,0,1.0,0,1.0,0,1.0,0,1.0
403,'01',36.44274774773785,0.0,27.867650453675267,-3.910795212794083,1.0,0,0,100.0,0.0,1.0,0.0,0.0,1.0,1,100.0,4999.0,-4999.0,0,1,1.0,0,1.0,0,1.0,0,1.0,0,1.0
404,'01',0.0,0.0,415.5148030919455,-179.38759265348583,1.0,0,0,100.0,0.0,1.0,0.0,0.0,1.0,1,100.0,4999.0,-4999.0,0,1,1.0,0,1.0,0,1.0,0,1.0,0,1.0
410,'01',75.49738789571339,0.0,45.30014960923379,-9.029770224657884,1.0,0,0,100.0,0.0,1.0,0.0,0.0,1.0,1,100.0,4999.0,-4999.0,0,1,1.0,0,1.0,0,1.0,0,1.0,0,1.0
412,'01',468.28066950157245,0.0,317.1012081428667,-23.78577084273033,1.0,0,0,100.0,0.0,1.0,0.0,0.0,1.0,1,100.0,4999.0,-4999.0,0,1,1.0,0,1.0,0,1.0,0,1.0,0,1.0
414,'01',0.0,0.0,480.7860433460714,-214.3431260410018,1.0,0,0,100.0,0.0,1.0,0.0,0.0,1.0,1,100.0,4999.0,-4999.0,0,1,1.0,0,1.0,0,1.0,0,1.0,0,1.0
419,'01',0.0,0.0,732.7353981862317,-104.50967138053139,1.0,0,0,100.0,0.0,1.0,0.0,0.0,1.0,1,100.0,4999.0,-4999.0,0,1,1.0,0,1.0,0,1.0,0,1.0,0,1.0
420,'01',196.65518492477497,0.0,117.36005878504014,-13.807442003903112,1.0,0,0,100.0,0.0,1.0,0.0,0.0,1.0,1,100.0,4999.0,-4999.0,0,1,1.0,0,1.0,0,1.0,0,1.0,0,1.0
426,'01',441.84097758341363,0.0,287.16047405518066,-8.159622268491727,1.0,0,0,100.0,0.0,1.0,0.0,0.0,1.0,1,100.0,4999.0,-4999.0,0,1,1.0,0,1.0,0,1.0,0,1.0,0,1.0
431,'01',214.84518521519132,0.0,138.69794357045657,-37.53093796637372,1.0,0,0,100.0,0.0,1.0,0.0,0.0,1.0,1,100.0,4999.0,-4999.0,0,1,1.0,0,1.0,0,1.0,0,1.0,0,1.0
433,'01',28.33246521140628,0.0,15.064846531572984,-3.4648885232788604,1.0,0,0,100.0,0.0,1.0,0.0,0.0,1.0,1,100.0,4999.0,-4999.0,0,1,1.0,0,1.0,0,1.0,0,1.0,0,1.0
434,'01',99.96311235021068,0.0,54.415441956123146,-33.972899742898804,1.0,0,0,100.0,0.0,1.0,0.0,0.0,1.0,1,100.0,4999.0,-4999.0,0,1,1.0,0,1.0,0,1.0,0,1.0,0,1.0
437,'01',80.87726955200328,0.0,43.99265532142749,-3.7061733987354613,1.0,0,0,100.0,0.0,1.0,0.0,0.0,1.0,1,100.0,4999.0,-4999.0,0,1,1.0,0,1.0,0,1.0,0,1.0,0,1.0
0 / END OF GENERATOR DATA, BEGIN BRANCH DATA
3,4,'01',0.0036775708221579544,0.05150033741392714,0.0,'Line_2_3',36.15693206593739,0.0,0.0,0.0,0.0,0.0,0.0,0.0,0.0,0.0,0.0,0.0,0.0,0.0,0.0,0.0,1,1,0.0,1,1.0,0,1.0,0,1.0,0,1.0
3,9,'01',3.9150853498440123E-4,0.07745581841770727,0.0,'Line_2_8',1637.2616969495066,0.0,0.0,0.0,0.0,0.0,0.0,0.0,0.0,0.0,0.0,0.0,0.0,0.0,0.0,0.0,1,1,0.0,1,1.0,0,1.0,0,1.0,0,1.0
3,19,'01',0.021154069964162147,0.10143760952338296,0.0,'Line_2_18',256.9828539243189,0.0,0.0,0.0,0.0,0.0,0.0,0.0,0.0,0.0,0.0,0.0,0.0,0.0,0.0,0.0,1,1,0.0,1,1.0,0,1.0,0,1.0,0,1.0
3,36,'01',0.03836214188345917,0.49852617390676024,0.0,'Line_2_35',18.00754018469066,0.0,0.0,0.0,0.0,0.0,0.0,0.0,0.0,0.0,0.0,0.0,0.0,0.0,0.0,0.0,1,1,0.0,1,1.0,0,1.0,0,1.0,0,1.0
3,45,'01',0.0019058787633904387,0.27091591422936473,0.0,'Line_2_44',608.0002734383769,0.0,0.0,0.0,0.0,0.0,0.0,0.0,0.0,0.0,0.0,0.0,0.0,0.0,0.0,0.0,1,1,0.0,1,1.0,0,1.0,0,1.0,0,1.0
6,5,'01',0.048927549958599235,0.4976003364699916,0.0,'Line_5_4',207.27653206543343,0.0,0.0,0.0,0.0,0.0,0.0,0.0,0.0,0.0,0.0,0.0,0.0,0.0,0.0,0.0,1,1,0.0,1,1.0,0,1.0,0,1.0,0,1.0
6,10,'01',0.001216014385295183,0.040628628855715915,0.0,'Line_5_9',642.8008400817257,0.0,0.0,0.0,0.0,0.0,0.0,0.0,0.0,0.0,0.0,0.0,0.0,0.0,0.0,0.0,1,1,0.0,1,1.0,0,1.0,0,1.0,0,1.0
6,20,'01',0.004276101356754161,0.022008558300729772,0.0,'Line_5_19',486.9681436347311,0.0,0.0,0.0,0.0,0.0,0.0,0.0,0.0,0.0,0.0,0.0,0.0,0.0,0.0,0.0,1,1,0.0,1,1.0,0,1.0,0,1.0,0,1.0
6,25,'01',0.005588486491422601,0.04205216202726038,0.0,'Line_5_24',1008.151462277543,0.0,0.0,0.0,0.0,0.0,0.0,0.0,0.0,0.0,0.0,0.0,0.0,0.0,0.0,0.0,1,1,0.0,1,1.0,0,1.0,0,1.0,0,1.0
7,39,'01',0.010316974214232246,0.09169587076798355,0.0,'Line_6_38',737.7865394546429,0.0,0.0,0.0,0.0,0.0,0.0,0.0,0.0,0.0,0.0,0.0,0.0,0.0,0.0,0.0,1,1,0.0,1,1.0,0,1.0,0,1.0,0,1.0
8,5,'01',0.00854430084547378,0.050910324313908066,0.0,'Line_7_4',1000.6331256917247,0.0,0.0,0.0,0.0,0.0,0.0,0.0,0.0,0.0,0.0,0.0,0.0,0.0,0.0,0.0,1,1,0.0,1,1.0,0,1.0,0,1.0,0,1.0
8,6,'01',0.0739315220907066,0.4945039231809505,0.0,'Line_7_5',220.20875257565513,0.0,0.0,0.0,0.0,0.0,0.0,0.0,0.0,0.0,0.0,0.0,0.0,0.0,0.0,0.0,1,1,0.0,1,1.0,0,1.0,0,1.0,0,1.0
8,11,'01',0.029800521329695958,0.49911113885434205,0.0,'Line_7_10',256.8173620427586,0.0,0.0,0.0,0.0,0.0,0.0,0.0,0.0,0.0,0.0,0.0,0.0,0.0,0.0,0.0,1,1,0.0,1,1.0,0,1.0,0,1.0,0,1.0
8,26,'01',0.016108255342219983,0.03377000095071486,0.0,'Line_7_25',1419.2802134172996,0.0,0.0,0.0,0.0,0.0,0.0,0.0,0.0,0.0,0.0,0.0,0.0,0.0,0.0,0.0,1,1,0.0,1,1.0,0,1.0,0,1.0,0,1.0
9,17,'01',5.515637061227348E-4,0.04632706833272994,0.0,'Line_8_16',576.9104604784442,0.0,0.0,0.0,0.0,0.0,0.0,0.0,0.0,0.0,0.0,0.0,0.0,0.0,0.0,0.0,1,1,0.0,1,1.0,0,1.0,0,1.0,0,1.0
10,25,'01',0.004230517322918188,0.14884936322970116,0.0,'Line_9_24',291.48205477192124,0.0,0.0,0.0,0.0,0.0,0.0,0.0,0.0,0.0,0.0,0.0,0.0,0.0,0.0,0.0,1,1,0.0,1,1.0,0,1.0,0,1.0,0,1.0
11,21,'01',0.06708541221918142,0.4954791090120576,0.0,'Line_10_20',19.223805988146342,0.0,0.0,0.0,0.0,0.0,0.0,0.0,0.0,0.0,0.0,0.0,0.0,0.0,0.0,0.0,1,1,0.0,1,1.0,0,1.0,0,1.0,0,1.0
11,23,'01',0.010362941940304203,0.2205330202582683,0.0,'Line_10_22',455.68350242959747,0.0,0.0,0.0,0.0,0.0,0.0,0.0,0.0,0.0,0.0,0.0,0.0,0.0,0.0,0.0,1,1,0.0,1,1.0,0,1.0,0,1.0,0,1.0
11,44,'01',2.770510733071209E-4,0.02451244827807615,0.0,'Line_10_43',1190.4937406284557,0.0,0.0,0.0,0.0,0.0,0.0,0.0,0.0,0.0,0.0,0.0,0.0,0.0,0.0,0.0,1,1,0.0,1,1.0,0,1.0,0,1.0,0,1.0
12,11,'01',0.008812734991028403,0.04834941324002243,0.0,'Line_11_10',157.51166816613042,0.0,0.0,0.0,0.0,0.0,0.0,0.0,0.0,0.0,0.0,0.0,0.0,0.0,0.0,0.0,1,1,0.0,1,1.0,0,1.0,0,1.0,0,1.0
12,13,'01',4.114794120814869E-4,0.032809270110719345,0.0,'Line_11_12',346.1067069589625,0.0,0.0,0.0,0.0,0.0,0.0,0.0,0.0,0.0,0.0,0.0,0.0,0.0,0.0,0.0,1,1,0.0,1,1.0,0,1.0,0,1.0,0,1.0
12,21,'01',0.11774813453670135,0.4859376264636511,0.0,'Line_11_20',277.9145765916803,0.0,0.0,0.0,0.0,0.0,0.0,0.0,0.0,0.0,0.0,0.0,0.0,0.0,0.0,0.0,1,1,0.0,1,1.0,0,1.0,0,1.0,0,1.0
12,32,'01',0.012925205172269064,0.2875519649182914,0.0,'Line_11_31',92.99249442826012,0.0,0.0,0.0,0.0,0.0,0.0,0.0,0.0,0.0,0.0,0.0,0.0,0.0,0.0,0.0,1,1,0.0,1,1.0,0,1.0,0,1.0,0,1.0
13,40,'01',0.02414036620715485,0.17369171538074668,0.0,'Line_12_39',1360.5749187161346,0.0,0.0,0.0,0.0,0.0,0.0,0.0,0.0,0.0,0.0,0.0,0.0,0.0,0.0,0.0,1,1,0.0,1,1.0,0,1.0,0,1.0,0,1.0
13,47,'01',0.00238876580460581,0.08427626750429243,0.0,'Line_12_46',512.0623590283445,0.0,0.0,0.0,0.0,0.0,0.0,0.0,0.0,0.0,0.0,0.0,0.0,0.0,0.0,0.0,1,1,0.0,1,1.0,0,1.0,0,1.0,0,1.0
14,18,'01',1.6929143493855668E-4,0.0036945096237995002,0.0,'Line_13_17',1215.3008591639102,0.0,0.0,0.0,0.0,0.0,0.0,0.0,0.0,0.0,0.0,0.0,0.0,0.0,0.0,0.0,1,1,0.0,1,1.0,0,1.0,0,1.0,0,1.0
14,42,'01',0.0015014778870339304,0.006496944957906896,0.0,'Line_13_41',913.4316368668988,0.0,0.0,0.0,0.0,0.0,0.0,0.0,0.0,0.0,0.0,0.0,0.0,0.0,0.0,0.0,1,1,0.0,1,1.0,0,1.0,0,1.0,0,1.0
15,34,'01',0.0619223323917097,0.49615080847578047,0.0,'Line_14_33',77.63471757831906,0.0,0.0,0.0,0.0,0.0,0.0,0.0,0.0,0.0,0.0,0.0,0.0,0.0,0.0,0.0,1,1,0.0,1,1.0,0,1.0,0,1.0,0,1.0
15,43,'01',0.07684342674706159,0.49405980181124737,0.0,'Line_14_42',53.522176161588526,0.0,0.0,0.0,0.0,0.0,0.0,0.0,0.0,0.0,0.0,0.0,0.0,0.0,0.0,0.0,1,1,0.0,1,1.0,0,1.0,0,1.0,0,1.0
18,7,'01',0.0015368060713670322,0.003845823371432324,0.0,'Line_17_6',3703.117493732518,0.0,0.0,0.0,0.0,0.0,0.0,0.0,0.0,0.0,0.0,0.0,0.0,0.0,0.0,0.0,1,1,0.0,1,1.0,0,1.0,0,1.0,0,1.0
18,9,'01',0.004338988142406388,0.18114198954761554,0.0,'Line_17_8',52.321815927416516,0.0,0.0,0.0,0.0,0.0,0.0,0.0,0.0,0.0,0.0,0.0,0.0,0.0,0.0,0.0,1,1,0.0,1,1.0,0,1.0,0,1.0,0,1.0
18,17,'01',9.445306330358362E-5,0.31907232853817924,0.0,'Line_17_16',251.70499845556333,0.0,0.0,0.0,0.0,0.0,0.0,0.0,0.0,0.0,0.0,0.0,0.0,0.0,0.0,0.0,1,1,0.0,1,1.0,0,1.0,0,1.0,0,1.0
18,23,'01',0.0044618429210354325,0.10581490185878195,0.0,'Line_17_22',233.4293451508081,0.0,0.0,0.0,0.0,0.0,0.0,0.0,0.0,0.0,0.0,0.0,0.0,0.0,0.0,0.0,1,1,0.0,1,1.0,0,1.0,0,1.0,0,1.0
19,27,'01',0.042382344635560634,0.1983714007288627,0.0,'Line_18_26',610.0584043574332,0.0,0.0,0.0,0.0,0.0,0.0,0.0,0.0,0.0,0.0,0.0,0.0,0.0,0.0,0.0,1,1,0.0,1,1.0,0,1.0,0,1.0,0,1.0
21,32,'01',0.40407119826259347,0.2944935767289873,0.0,'Line_20_31',193.08555287397863,0.0,0.0,0.0,0.0,0.0,0.0,0.0,0.0,0.0,0.0,0.0,0.0,0.0,0.0,0.0,1,1,0.0,1,1.0,0,1.0,0,1.0,0,1.0
22,1,'01',0.004954769837237465,0.27748750740865713,0.0,'Line_21_0',81.26795456728817,0.0,0.0,0.0,0.0,0.0,0.0,0.0,0.0,0.0,0.0,0.0,0.0,0.0,0.0,0.0,1,1,0.0,1,1.0,0,1.0,0,1.0,0,1.0
22,28,'01',0.0253729821014014,0.08727517058268466,0.0,'Line_21_27',269.1349617396519,0.0,0.0,0.0,0.0,0.0,0.0,0.0,0.0,0.0,0.0,0.0,0.0,0.0,0.0,0.0,1,1,0.0,1,1.0,0,1.0,0,1.0,0,1.0
22,33,'01',1.5849806259255313E-4,0.028723474305091735,0.0,'Line_21_32',1793.723218845659,0.0,0.0,0.0,0.0,0.0,0.0,0.0,0.0,0.0,0.0,0.0,0.0,0.0,0.0,0.0,1,1,0.0,1,1.0,0,1.0,0,1.0,0,1.0
23,19,'01',0.003929750330027183,0.08173851739469752,0.0,'Line_22_18',126.33015496314907,0.0,0.0,0.0,0.0,0.0,0.0,0.0,0.0,0.0,0.0,0.0,0.0,0.0,0.0,0.0,1,1,0.0,1,1.0,0,1.0,0,1.0,0,1.0
24,35,'01',4.8009125595698725E-4,0.0029231985061009434,0.0,'Line_23_34',3640.2407427988733,0.0,0.0,0.0,0.0,0.0,0.0,0.0,0.0,0.0,0.0,0.0,0.0,0.0,0.0,0.0,1,1,0.0,1,1.0,0,1.0,0,1.0,0,1.0
26,1,'01',0.002439475319585531,0.028772831742061727,0.0,'Line_25_0',199.98472586016683,0.0,0.0,0.0,0.0,0.0,0.0,0.0,0.0,0.0,0.0,0.0,0.0,0.0,0.0,0.0,1,1,0.0,1,1.0,0,1.0,0,1.0,0,1.0
26,22,'01',0.026820641605633418,0.12662546134210098,0.0,'Line_25_21',418.6622365850444,0.0,0.0,0.0,0.0,0.0,0.0,0.0,0.0,0.0,0.0,0.0,0.0,0.0,0.0,0.0,1,1,0.0,1,1.0,0,1.0,0,1.0,0,1.0
26,38,'01',7.066454267610126E-4,0.009641343674771659,0.0,'Line_25_37',907.4779496446747,0.0,0.0,0.0,0.0,0.0,0.0,0.0,0.0,0.0,0.0,0.0,0.0,0.0,0.0,0.0,1,1,0.0,1,1.0,0,1.0,0,1.0,0,1.0
28,1,'01',0.004381430692260543,0.03554559908708906,0.0,'Line_27_0',350.3063848701039,0.0,0.0,0.0,0.0,0.0,0.0,0.0,0.0,0.0,0.0,0.0,0.0,0.0,0.0,0.0,1,1,0.0,1,1.0,0,1.0,0,1.0,0,1.0
28,33,'01',0.07360510807925878,0.3914249762351317,0.0,'Line_27_32',108.5015427953546,0.0,0.0,0.0,0.0,0.0,0.0,0.0,0.0,0.0,0.0,0.0,0.0,0.0,0.0,0.0,1,1,0.0,1,1.0,0,1.0,0,1.0,0,1.0
31,6,'01',0.022439025804445022,0.18031687310422032,0.0,'Line_30_5',1599.963509242829,0.0,0.0,0.0,0.0,0.0,0.0,0.0,0.0,0.0,0.0,0.0,0.0,0.0,0.0,0.0,1,1,0.0,1,1.0,0,1.0,0,1.0,0,1.0
31,36,'01',0.004589054993004443,0.14046258921892832,0.0,'Line_30_35',1869.3189674043274,0.0,0.0,0.0,0.0,0.0,0.0,0.0,0.0,0.0,0.0,0.0,0.0,0.0,0.0,0.0,1,1,0.0,1,1.0,0,1.0,0,1.0,0,1.0
31,38,'01',0.008825724532241317,0.07728430885591618,0.0,'Line_30_37',1405.8781185576916,0.0,0.0,0.0,0.0,0.0,0.0,0.0,0.0,0.0,0.0,0.0,0.0,0.0,0.0,0.0,1,1,0.0,1,1.0,0,1.0,0,1.0,0,1.0
31,48,'01',0.008532129046581249,0.49992719747372466,0.0,'Line_30_47',23.79437692173265,0.0,0.0,0.0,0.0,0.0,0.0,0.0,0.0,0.0,0.0,0.0,0.0,0.0,0.0,0.0,1,1,0.0,1,1.0,0,1.0,0,1.0,0,1.0
35,7,'01',6.901539983944533E-4,0.003097446753730042,0.0,'Line_34_6',1710.7135592294471,0.0,0.0,0.0,0.0,0.0,0.0,0.0,0.0,0.0,0.0,0.0,0.0,0.0,0.0,0.0,1,1,0.0,1,1.0,0,1.0,0,1.0,0,1.0
35,9,'01',0.0034374955249584817,0.4907191655784423,0.0,'Line_34_8',68.65705200369364,0.0,0.0,0.0,0.0,0.0,0.0,0.0,0.0,0.0,0.0,0.0,0.0,0.0,0.0,0.0,1,1,0.0,1,1.0,0,1.0,0,1.0,0,1.0
35,29,'01',0.03643207026062104,0.1178218428351779,0.0,'Line_34_28',314.7016559467018,0.0,0.0,0.0,0.0,0.0,0.0,0.0,0.0,0.0,0.0,0.0,0.0,0.0,0.0,0.0,1,1,0.0,1,1.0,0,1.0,0,1.0,0,1.0
35,30,'01',0.008343873788029015,0.061551333258199746,0.0,'Line_34_29',294.6571497738757,0.0,0.0,0.0,0.0,0.0,0.0,0.0,0.0,0.0,0.0,0.0,0.0,0.0,0.0,0.0,1,1,0.0,1,1.0,0,1.0,0,1.0,0,1.0
35,41,'01',6.284116063165421E-4,0.028478497403996276,0.0,'Line_34_40',786.0319269904277,0.0,0.0,0.0,0.0,0.0,0.0,0.0,0.0,0.0,0.0,0.0,0.0,0.0,0.0,0.0,1,1,0.0,1,1.0,0,1.0,0,1.0,0,1.0
36,12,'01',0.008580740748306396,0.12230989630386024,0.0,'Line_35_11',216.42903007890345,0.0,0.0,0.0,0.0,0.0,0.0,0.0,0.0,0.0,0.0,0.0,0.0,0.0,0.0,0.0,1,1,0.0,1,1.0,0,1.0,0,1.0,0,1.0
37,4,'01',6.317920302193503E-4,0.05219943180035738,0.0,'Line_36_3',34.42750500911225,0.0,0.0,0.0,0.0,0.0,0.0,0.0,0.0,0.0,0.0,0.0,0.0,0.0,0.0,0.0,1,1,0.0,1,1.0,0,1.0,0,1.0,0,1.0
37,23,'01',7.122648973282835E-4,0.02053590067789167,0.0,'Line_36_22',436.83925270270953,0.0,0.0,0.0,0.0,0.0,0.0,0.0,0.0,0.0,0.0,0.0,0.0,0.0,0.0,0.0,1,1,0.0,1,1.0,0,1.0,0,1.0,0,1.0
37,45,'01',0.013449605826246835,0.4998190753693966,0.0,'Line_36_44',162.73158862282008,0.0,0.0,0.0,0.0,0.0,0.0,0.0,0.0,0.0,0.0,0.0,0.0,0.0,0.0,0.0,1,1,0.0,1,1.0,0,1.0,0,1.0,0,1.0
37,46,'01',0.007286288387014411,0.05784675429811692,0.0,'Line_36_45',185.81335177238915,0.0,0.0,0.0,0.0,0.0,0.0,0.0,0.0,0.0,0.0,0.0,0.0,0.0,0.0,0.0,1,1,0.0,1,1.0,0,1.0,0,1.0,0,1.0
38,1,'01',0.015713090525415144,0.4997530377958098,0.0,'Line_37_0',275.417345132985,0.0,0.0,0.0,0.0,0.0,0.0,0.0,0.0,0.0,0.0,0.0,0.0,0.0,0.0,0.0,1,1,0.0,1,1.0,0,1.0,0,1.0,0,1.0
38,22,'01',0.006856566633810648,0.3947100809188042,0.0,'Line_37_21',308.8586065985744,0.0,0.0,0.0,0.0,0.0,0.0,0.0,0.0,0.0,0.0,0.0,0.0,0.0,0.0,0.0,1,1,0.0,1,1.0,0,1.0,0,1.0,0,1.0
38,28,'01',3.075082933518857E-4,0.012511749229538186,0.0,'Line_37_27',679.2046595356875,0.0,0.0,0.0,0.0,0.0,0.0,0.0,0.0,0.0,0.0,0.0,0.0,0.0,0.0,0.0,1,1,0.0,1,1.0,0,1.0,0,1.0,0,1.0
41,34,'01',0.0031410015234150297,0.06286697086541115,0.0,'Line_40_33',369.78142980645924,0.0,0.0,0.0,0.0,0.0,0.0,0.0,0.0,0.0,0.0,0.0,0.0,0.0,0.0,0.0,1,1,0.0,1,1.0,0,1.0,0,1.0,0,1.0
42,17,'01',0.0016577315804537915,0.012099880242172338,0.0,'Line_41_16',1021.6876212579814,0.0,0.0,0.0,0.0,0.0,0.0,0.0,0.0,0.0,0.0,0.0,0.0,0.0,0.0,0.0,1,1,0.0,1,1.0,0,1.0,0,1.0,0,1.0
43,7,'01',0.010660361608603626,0.49988634377263574,0.0,'Line_42_6',117.05367824728111,0.0,0.0,0.0,0.0,0.0,0.0,0.0,0.0,0.0,0.0,0.0,0.0,0.0,0.0,0.0,1,1,0.0,1,1.0,0,1.0,0,1.0,0,1.0
43,41,'01',0.00726495150555292,0.49994721769365014,0.0,'Line_42_40',28.986496015002075,0.0,0.0,0.0,0.0,0.0,0.0,0.0,0.0,0.0,0.0,0.0,0.0,0.0,0.0,0.0,1,1,0.0,1,1.0,0,1.0,0,1.0,0,1.0
44,21,'01',0.0037272606702177706,0.3727767607230558,0.0,'Line_43_20',23.203096357422005,0.0,0.0,0.0,0.0,0.0,0.0,0.0,0.0,0.0,0.0,0.0,0.0,0.0,0.0,0.0,1,1,0.0,1,1.0,0,1.0,0,1.0,0,1.0
45,19,'01',0.035247734275007915,0.23772698513617974,0.0,'Line_44_18',496.8627722803197,0.0,0.0,0.0,0.0,0.0,0.0,0.0,0.0,0.0,0.0,0.0,0.0,0.0,0.0,0.0,1,1,0.0,1,1.0,0,1.0,0,1.0,0,1.0
46,2,'01',0.008446621982684414,0.10884608025223541,0.0,'Line_45_1',476.99416471912053,0.0,0.0,0.0,0.0,0.0,0.0,0.0,0.0,0.0,0.0,0.0,0.0,0.0,0.0,0.0,1,1,0.0,1,1.0,0,1.0,0,1.0,0,1.0
46,27,'01',0.014940569942998768,0.20321383160257966,0.0,'Line_45_26',56.59322757818669,0.0,0.0,0.0,0.0,0.0,0.0,0.0,0.0,0.0,0.0,0.0,0.0,0.0,0.0,0.0,1,1,0.0,1,1.0,0,1.0,0,1.0,0,1.0
49,166,'01',0.012821055891354426,0.18117324528722872,0.0,'Line_48_165',374.65745886370024,0.0,0.0,0.0,0.0,0.0,0.0,0.0,0.0,0.0,0.0,0.0,0.0,0.0,0.0,0.0,1,1,0.0,1,1.0,0,1.0,0,1.0,0,1.0
52,64,'01',0.0011022802655620573,0.020182785945558522,0.0,'Line_51_63',193.02298812637358,0.0,0.0,0.0,0.0,0.0,0.0,0.0,0.0,0.0,0.0,0.0,0.0,0.0,0.0,0.0,1,1,0.0,1,1.0,0,1.0,0,1.0,0,1.0
52,154,'01',6.130660578881785E-4,0.02592593979534761,0.0,'Line_51_153',1856.5889504623824,0.0,0.0,0.0,0.0,0.0,0.0,0.0,0.0,0.0,0.0,0.0,0.0,0.0,0.0,0.0,1,1,0.0,1,1.0,0,1.0,0,1.0,0,1.0
52,167,'01',0.006091678093412885,0.16313089655855745,0.0,'Line_51_166',1182.4556840716743,0.0,0.0,0.0,0.0,0.0,0.0,0.0,0.0,0.0,0.0,0.0,0.0,0.0,0.0,0.0,1,1,0.0,1,1.0,0,1.0,0,1.0,0,1.0
53,74,'01',0.006202103506062296,0.11568866938055582,0.0,'Line_52_73',271.5569425239792,0.0,0.0,0.0,0.0,0.0,0.0,0.0,0.0,0.0,0.0,0.0,0.0,0.0,0.0,0.0,1,1,0.0,1,1.0,0,1.0,0,1.0,0,1.0
55,63,'01',0.058724410730376694,0.21041861026858577,0.0,'Line_54_62',176.36418031065247,0.0,0.0,0.0,0.0,0.0,0.0,0.0,0.0,0.0,0.0,0.0,0.0,0.0,0.0,0.0,1,1,0.0,1,1.0,0,1.0,0,1.0,0,1.0
56,117,'01',0.0036831325568662306,0.061337943319527466,0.0,'Line_55_116',137.49612087873604,0.0,0.0,0.0,0.0,0.0,0.0,0.0,0.0,0.0,0.0,0.0,0.0,0.0,0.0,0.0,1,1,0.0,1,1.0,0,1.0,0,1.0,0,1.0
57,69,'01',0.02178378492420957,0.19158331546361096,0.0,'Line_56_68',145.0004375262315,0.0,0.0,0.0,0.0,0.0,0.0,0.0,0.0,0.0,0.0,0.0,0.0,0.0,0.0,0.0,1,1,0.0,1,1.0,0,1.0,0,1.0,0,1.0
57,163,'01',0.009557415386920396,0.26454052489084634,0.0,'Line_56_162',196.0786574373235,0.0,0.0,0.0,0.0,0.0,0.0,0.0,0.0,0.0,0.0,0.0,0.0,0.0,0.0,0.0,1,1,0.0,1,1.0,0,1.0,0,1.0,0,1.0
60,99,'01',0.006819639100676341,0.06672078347016826,0.0,'Line_59_98',554.8563440433335,0.0,0.0,0.0,0.0,0.0,0.0,0.0,0.0,0.0,0.0,0.0,0.0,0.0,0.0,0.0,1,1,0.0,1,1.0,0,1.0,0,1.0,0,1.0
60,153,'01',0.005869152982325987,0.036274120408449705,0.0,'Line_59_152',1057.6624281280501,0.0,0.0,0.0,0.0,0.0,0.0,0.0,0.0,0.0,0.0,0.0,0.0,0.0,0.0,0.0,1,1,0.0,1,1.0,0,1.0,0,1.0,0,1.0
61,110,'01',0.285365871697105,0.410568288194,0.0,'Line_60_109',1218.2358349100948,0.0,0.0,0.0,0.0,0.0,0.0,0.0,0.0,0.0,0.0,0.0,0.0,0.0,0.0,0.0,1,1,0.0,1,1.0,0,1.0,0,1.0,0,1.0
61,143,'01',0.0034921734038464787,0.49998780457618913,0.0,'Line_60_142',137.18192794415873,0.0,0.0,0.0,0.0,0.0,0.0,0.0,0.0,0.0,0.0,0.0,0.0,0.0,0.0,0.0,1,1,0.0,1,1.0,0,1.0,0,1.0,0,1.0
62,53,'01',1.314784651426779E-4,0.0036131440096919395,0.0,'Line_61_52',562.6375371654755,0.0,0.0,0.0,0.0,0.0,0.0,0.0,0.0,0.0,0.0,0.0,0.0,0.0,0.0,0.0,1,1,0.0,1,1.0,0,1.0,0,1.0,0,1.0
64,58,'01',0.011397499217463115,0.0808677730280046,0.0,'Line_63_57',851.907981519494,0.0,0.0,0.0,0.0,0.0,0.0,0.0,0.0,0.0,0.0,0.0,0.0,0.0,0.0,0.0,1,1,0.0,1,1.0,0,1.0,0,1.0,0,1.0
64,162,'01',0.012014124342836057,0.13671054014625697,0.0,'Line_63_161',224.0884660184505,0.0,0.0,0.0,0.0,0.0,0.0,0.0,0.0,0.0,0.0,0.0,0.0,0.0,0.0,0.0,1,1,0.0,1,1.0,0,1.0,0,1.0,0,1.0
65,152,'01',1.3039708646301124E-4,0.014517955322692757,0.0,'Line_64_151',2217.235611558153,0.0,0.0,0.0,0.0,0.0,0.0,0.0,0.0,0.0,0.0,0.0,0.0,0.0,0.0,0.0,1,1,0.0,1,1.0,0,1.0,0,1.0,0,1.0
65,156,'01',0.035667687142931524,0.4987261935109023,0.0,'Line_64_155',427.3004207677251,0.0,0.0,0.0,0.0,0.0,0.0,0.0,0.0,0.0,0.0,0.0,0.0,0.0,0.0,0.0,1,1,0.0,1,1.0,0,1.0,0,1.0,0,1.0
65,181,'01',0.10956189434774827,0.48784853316058346,0.0,'Line_64_180',493.25241155849466,0.0,0.0,0.0,0.0,0.0,0.0,0.0,0.0,0.0,0.0,0.0,0.0,0.0,0.0,0.0,1,1,0.0,1,1.0,0,1.0,0,1.0,0,1.0
67,55,'01',0.004001599785018535,0.13600181703739977,0.0,'Line_66_54',242.9662693724468,0.0,0.0,0.0,0.0,0.0,0.0,0.0,0.0,0.0,0.0,0.0,0.0,0.0,0.0,0.0,1,1,0.0,1,1.0,0,1.0,0,1.0,0,1.0
67,169,'01',0.007186655312606748,0.21787347278037114,0.0,'Line_66_168',244.06835892622752,0.0,0.0,0.0,0.0,0.0,0.0,0.0,0.0,0.0,0.0,0.0,0.0,0.0,0.0,0.0,1,1,0.0,1,1.0,0,1.0,0,1.0,0,1.0
67,174,'01',0.0010976917833473523,0.4999987950712969,0.0,'Line_66_173',87.53846500308562,0.0,0.0,0.0,0.0,0.0,0.0,0.0,0.0,0.0,0.0,0.0,0.0,0.0,0.0,0.0,1,1,0.0,1,1.0,0,1.0,0,1.0,0,1.0
68,77,'01',0.05527063335463478,0.25547224278061015,0.0,'Line_67_76',62.01322385334536,0.0,0.0,0.0,0.0,0.0,0.0,0.0,0.0,0.0,0.0,0.0,0.0,0.0,0.0,0.0,1,1,0.0,1,1.0,0,1.0,0,1.0,0,1.0
68,105,'01',0.020699862101929024,0.4321509981079915,0.0,'Line_67_104',1949.2709520368956,0.0,0.0,0.0,0.0,0.0,0.0,0.0,0.0,0.0,0.0,0.0,0.0,0.0,0.0,0.0,1,1,0.0,1,1.0,0,1.0,0,1.0,0,1.0
69,94,'01',6.772509609273766E-4,0.004503119760316314,0.0,'Line_68_93',728.1249875944264,0.0,0.0,0.0,0.0,0.0,0.0,0.0,0.0,0.0,0.0,0.0,0.0,0.0,0.0,0.0,1,1,0.0,1,1.0,0,1.0,0,1.0,0,1.0
69,95,'01',0.12475393822009567,0.4841863844621992,0.0,'Line_68_94',67.69839662240005,0.0,0.0,0.0,0.0,0.0,0.0,0.0,0.0,0.0,0.0,0.0,0.0,0.0,0.0,0.0,1,1,0.0,1,1.0,0,1.0,0,1.0,0,1.0
69,139,'01',0.010229129852380456,0.4050800562397027,0.0,'Line_68_138',53.856997196435984,0.0,0.0,0.0,0.0,0.0,0.0,0.0,0.0,0.0,0.0,0.0,0.0,0.0,0.0,0.0,1,1,0.0,1,1.0,0,1.0,0,1.0,0,1.0
72,125,'01',0.01365642225310693,0.15177221341482813,0.0,'Line_71_124',762.6301269795198,0.0,0.0,0.0,0.0,0.0,0.0,0.0,0.0,0.0,0.0,0.0,0.0,0.0,0.0,0.0,1,1,0.0,1,1.0,0,1.0,0,1.0,0,1.0
77,123,'01',0.044237026620035744,0.49803924089956825,0.0,'Line_76_122',210.21360678085563,0.0,0.0,0.0,0.0,0.0,0.0,0.0,0.0,0.0,0.0,0.0,0.0,0.0,0.0,0.0,1,1,0.0,1,1.0,0,1.0,0,1.0,0,1.0
...